
     RDKit          2D

297306  0  0  0  0  0  0  0  0999 V2000
  -18.5648   -6.9230    0.0000 C   0  0  0  0  0  0  0  0  0  0  0  0
  -18.3169   -8.4024    0.0000 N   0  0  0  0  0  0  0  0  0  0  0  0
  -19.4741   -9.3568    0.0000 C   0  0  0  0  0  0  0  0  0  0  0  0
  -20.8793   -8.8317    0.0000 C   0  0  0  0  0  0  0  0  0  0  0  0
  -22.0365   -9.7861    0.0000 C   0  0  0  0  0  0  0  0  0  0  0  0
  -21.7886  -11.2655    0.0000 C   0  0  0  0  0  0  0  0  0  0  0  0
  -20.3835  -11.7905    0.0000 C   0  0  0  0  0  0  0  0  0  0  0  0
  -19.2263  -10.8361    0.0000 C   0  0  0  0  0  0  0  0  0  0  0  0
  -20.4486  -13.2891    0.0000 C   0  0  0  0  0  0  0  0  0  0  0  0
  -21.8940  -13.6902    0.0000 O   0  0  0  0  0  0  0  0  0  0  0  0
  -22.7222  -12.4396    0.0000 C   0  0  0  0  0  0  0  0  0  0  0  0
  -24.2208  -12.3744    0.0000 O   0  0  0  0  0  0  0  0  0  0  0  0
  -20.6701  -14.7726    0.0000 C   0  0  0  0  0  0  0  0  0  0  0  0
  -19.4959  -15.7062    0.0000 C   0  0  0  0  0  0  0  0  0  0  0  0
  -19.7174  -17.1898    0.0000 C   0  0  0  0  0  0  0  0  0  0  0  0
  -21.1129  -17.7398    0.0000 C   0  0  0  0  0  0  0  0  0  0  0  0
  -22.2870  -16.8063    0.0000 C   0  0  0  0  0  0  0  0  0  0  0  0
  -22.0656  -15.3227    0.0000 C   0  0  0  0  0  0  0  0  0  0  0  0
  -21.3343  -19.2234    0.0000 O   0  0  0  0  0  0  0  0  0  0  0  0
  -18.1004  -15.1561    0.0000 O   0  0  0  0  0  0  0  0  0  0  0  0
  -17.8790  -13.6726    0.0000 C   0  0  0  0  0  0  0  0  0  0  0  0
  -19.0531  -12.7390    0.0000 C   0  0  0  0  0  0  0  0  0  0  0  0
  -18.2838  -11.6911    0.0000 C   0  0  0  0  0  0  0  0  0  0  0  0
  -17.5395  -11.3978    0.0000 C   0  0  0  0  0  0  0  0  0  0  0  0
  -16.9133  -11.8957    0.0000 C   0  0  0  0  0  0  0  0  0  0  0  0
  -17.0314  -12.6869    0.0000 C   0  0  0  0  0  0  0  0  0  0  0  0
  -14.8666  -11.0889    0.0000 O   0  0  0  0  0  0  0  0  0  0  0  0
  -19.9699   -6.3980    0.0000 S   0  0  0  0  0  0  0  0  0  0  0  0
  -17.4075   -5.9687    0.0000 N   0  0  0  0  0  0  0  0  0  0  0  0
  -17.6554   -4.4893    0.0000 C   0  0  0  0  0  0  0  0  0  0  0  0
  -16.4982   -3.5349    0.0000 C   0  0  0  0  0  0  0  0  0  0  0  0
  -16.7460   -2.0556    0.0000 C   0  0  0  0  0  0  0  0  0  0  0  0
  -18.1512   -1.5305    0.0000 O   0  0  0  0  0  0  0  0  0  0  0  0
  -15.5888   -1.1012    0.0000 N   0  0  0  0  0  0  0  0  0  0  0  0
  -15.8367    0.3782    0.0000 C   0  0  0  0  0  0  0  0  0  0  0  0
  -16.5756    1.6835    0.0000 C   0  0  0  0  0  0  0  0  0  0  0  0
  -15.8145    2.9761    0.0000 C   0  0  0  0  0  0  0  0  0  0  0  0
  -14.3215    3.1202    0.0000 C   0  0  0  0  0  0  0  0  0  0  0  0
  -13.9971    4.5847    0.0000 N   0  0  0  0  0  0  0  0  0  0  0  0
  -15.2897    5.3458    0.0000 C   0  0  0  0  0  0  0  0  0  0  0  0
  -15.5891    6.8156    0.0000 C   0  0  0  0  0  0  0  0  0  0  0  0
  -17.0116    7.2913    0.0000 C   0  0  0  0  0  0  0  0  0  0  0  0
  -18.1349    6.2971    0.0000 C   0  0  0  0  0  0  0  0  0  0  0  0
  -17.8355    4.8273    0.0000 C   0  0  0  0  0  0  0  0  0  0  0  0
  -16.4129    4.3516    0.0000 C   0  0  0  0  0  0  0  0  0  0  0  0
  -14.6794    1.3325    0.0000 C   0  0  0  0  0  0  0  0  0  0  0  0
  -13.2743    0.8075    0.0000 O   0  0  0  0  0  0  0  0  0  0  0  0
  -14.9273    2.8119    0.0000 N   0  0  0  0  0  0  0  0  0  0  0  0
  -16.2698    3.4809    0.0000 C   0  0  0  0  0  0  0  0  0  0  0  0
  -16.0484    4.9645    0.0000 C   0  0  0  0  0  0  0  0  0  0  0  0
  -14.5691    5.2124    0.0000 C   0  0  0  0  0  0  0  0  0  0  0  0
  -13.8762    3.8820    0.0000 C   0  0  0  0  0  0  0  0  0  0  0  0
  -12.6255    4.7101    0.0000 C   0  0  0  0  0  0  0  0  0  0  0  0
  -12.5342    6.2074    0.0000 O   0  0  0  0  0  0  0  0  0  0  0  0
  -11.2830    4.0411    0.0000 N   0  0  0  0  0  0  0  0  0  0  0  0
  -10.0323    4.8693    0.0000 C   0  0  0  0  0  0  0  0  0  0  0  0
   -9.1403    6.0752    0.0000 C   0  0  0  0  0  0  0  0  0  0  0  0
   -7.6499    5.9057    0.0000 C   0  0  0  0  0  0  0  0  0  0  0  0
   -6.7579    7.1117    0.0000 C   0  0  0  0  0  0  0  0  0  0  0  0
   -5.2708    7.3079    0.0000 O   0  0  0  0  0  0  0  0  0  0  0  0
   -7.6714    8.3015    0.0000 O   0  0  0  0  0  0  0  0  0  0  0  0
   -8.6898    4.2003    0.0000 C   0  0  0  0  0  0  0  0  0  0  0  0
   -8.7811    2.7030    0.0000 O   0  0  0  0  0  0  0  0  0  0  0  0
   -7.4391    5.0284    0.0000 N   0  0  0  0  0  0  0  0  0  0  0  0
   -6.0966    4.3594    0.0000 C   0  0  0  0  0  0  0  0  0  0  0  0
   -5.7098    2.9101    0.0000 C   0  0  0  0  0  0  0  0  0  0  0  0
   -4.9131    1.6392    0.0000 C   0  0  0  0  0  0  0  0  0  0  0  0
   -3.7772    0.6596    0.0000 C   0  0  0  0  0  0  0  0  0  0  0  0
   -2.4030    0.0583    0.0000 C   0  0  0  0  0  0  0  0  0  0  0  0
   -7.3655    3.5595    0.0000 C   0  0  0  0  0  0  0  0  0  0  0  0
   -6.0389    5.8583    0.0000 C   0  0  0  0  0  0  0  0  0  0  0  0
   -7.3140    6.6482    0.0000 O   0  0  0  0  0  0  0  0  0  0  0  0
   -5.5420    7.2736    0.0000 N   0  0  0  0  0  0  0  0  0  0  0  0
   -4.6500    8.4796    0.0000 C   0  0  0  0  0  0  0  0  0  0  0  0
   -4.9640    9.9463    0.0000 C   0  0  0  0  0  0  0  0  0  0  0  0
   -6.3913   10.4078    0.0000 C   0  0  0  0  0  0  0  0  0  0  0  0
   -4.7574   11.4320    0.0000 C   0  0  0  0  0  0  0  0  0  0  0  0
   -5.9408   12.3538    0.0000 C   0  0  0  0  0  0  0  0  0  0  0  0
   -3.4422    9.3690    0.0000 C   0  0  0  0  0  0  0  0  0  0  0  0
   -3.9748   10.7713    0.0000 O   0  0  0  0  0  0  0  0  0  0  0  0
   -2.0259    9.8630    0.0000 N   0  0  0  0  0  0  0  0  0  0  0  0
   -0.5269    9.9175    0.0000 C   0  0  0  0  0  0  0  0  0  0  0  0
    0.4241   11.0775    0.0000 C   0  0  0  0  0  0  0  0  0  0  0  0
   -0.1050   12.4811    0.0000 C   0  0  0  0  0  0  0  0  0  0  0  0
    0.8460   13.6411    0.0000 C   0  0  0  0  0  0  0  0  0  0  0  0
   -1.0822   13.6191    0.0000 C   0  0  0  0  0  0  0  0  0  0  0  0
    0.9216    9.5278    0.0000 C   0  0  0  0  0  0  0  0  0  0  0  0
    1.5229   10.9020    0.0000 O   0  0  0  0  0  0  0  0  0  0  0  0
    2.1909    8.7284    0.0000 N   0  0  0  0  0  0  0  0  0  0  0  0
    3.1681    7.5904    0.0000 C   0  0  0  0  0  0  0  0  0  0  0  0
    4.6680    7.5701    0.0000 C   0  0  0  0  0  0  0  0  0  0  0  0
    5.4355    8.8589    0.0000 C   0  0  0  0  0  0  0  0  0  0  0  0
    6.9353    8.8387    0.0000 O   0  0  0  0  0  0  0  0  0  0  0  0
    4.7031   10.1680    0.0000 O   0  0  0  0  0  0  0  0  0  0  0  0
    3.7665    6.2149    0.0000 C   0  0  0  0  0  0  0  0  0  0  0  0
    5.2158    6.6017    0.0000 O   0  0  0  0  0  0  0  0  0  0  0  0
    3.9329    4.7242    0.0000 N   0  0  0  0  0  0  0  0  0  0  0  0
    3.6525    3.2506    0.0000 C   0  0  0  0  0  0  0  0  0  0  0  0
    2.9502    1.9252    0.0000 C   0  0  0  0  0  0  0  0  0  0  0  0
    1.8885    0.8656    0.0000 C   0  0  0  0  0  0  0  0  0  0  0  0
    0.5616    0.1661    0.0000 C   0  0  0  0  0  0  0  0  0  0  0  0
   -0.9126   -0.1112    0.0000 C   0  0  0  0  0  0  0  0  0  0  0  0
    5.1110    3.6011    0.0000 C   0  0  0  0  0  0  0  0  0  0  0  0
    4.5718    2.0654    0.0000 C   0  0  0  0  0  0  0  0  0  0  0  0
    4.3579    0.5807    0.0000 O   0  0  0  0  0  0  0  0  0  0  0  0
    6.0580    2.2689    0.0000 N   0  0  0  0  0  0  0  0  0  0  0  0
    6.9773    1.0836    0.0000 C   0  0  0  0  0  0  0  0  0  0  0  0
    7.4357   -0.3446    0.0000 C   0  0  0  0  0  0  0  0  0  0  0  0
    6.4281   -1.4558    0.0000 C   0  0  0  0  0  0  0  0  0  0  0  0
    6.7348   -2.9241    0.0000 C   0  0  0  0  0  0  0  0  0  0  0  0
    5.4331   -3.6695    0.0000 N   0  0  0  0  0  0  0  0  0  0  0  0
    4.3219   -2.6619    0.0000 C   0  0  0  0  0  0  0  0  0  0  0  0
    4.9369   -1.2937    0.0000 N   0  0  0  0  0  0  0  0  0  0  0  0
    8.4634    1.2871    0.0000 C   0  0  0  0  0  0  0  0  0  0  0  0
    9.0302    2.6759    0.0000 O   0  0  0  0  0  0  0  0  0  0  0  0
    9.3827    0.1018    0.0000 N   0  0  0  0  0  0  0  0  0  0  0  0
   10.8688    0.3053    0.0000 C   0  0  0  0  0  0  0  0  0  0  0  0
   12.1957    1.0049    0.0000 C   0  0  0  0  0  0  0  0  0  0  0  0
   13.5530    0.3662    0.0000 C   0  0  0  0  0  0  0  0  0  0  0  0
   11.7881   -0.8799    0.0000 C   0  0  0  0  0  0  0  0  0  0  0  0
   11.2213   -2.2687    0.0000 O   0  0  0  0  0  0  0  0  0  0  0  0
   13.2743   -0.6764    0.0000 N   0  0  0  0  0  0  0  0  0  0  0  0
   14.1936   -1.8617    0.0000 C   0  0  0  0  0  0  0  0  0  0  0  0
   14.6521   -3.2899    0.0000 C   0  0  0  0  0  0  0  0  0  0  0  0
   13.6444   -4.4011    0.0000 C   0  0  0  0  0  0  0  0  0  0  0  0
   14.1029   -5.8293    0.0000 C   0  0  0  0  0  0  0  0  0  0  0  0
   13.0953   -6.9405    0.0000 N   0  0  0  0  0  0  0  0  0  0  0  0
   15.5690   -6.1463    0.0000 O   0  0  0  0  0  0  0  0  0  0  0  0
   15.6797   -1.6582    0.0000 C   0  0  0  0  0  0  0  0  0  0  0  0
   16.2465   -0.2694    0.0000 O   0  0  0  0  0  0  0  0  0  0  0  0
   16.5990   -2.8435    0.0000 N   0  0  0  0  0  0  0  0  0  0  0  0
   18.0851   -2.6400    0.0000 C   0  0  0  0  0  0  0  0  0  0  0  0
   19.4120   -1.9404    0.0000 C   0  0  0  0  0  0  0  0  0  0  0  0
   20.6813   -2.7398    0.0000 C   0  0  0  0  0  0  0  0  0  0  0  0
   22.0082   -2.0403    0.0000 C   0  0  0  0  0  0  0  0  0  0  0  0
   23.2775   -2.8397    0.0000 N   0  0  0  0  0  0  0  0  0  0  0  0
   24.6044   -2.1401    0.0000 C   0  0  0  0  0  0  0  0  0  0  0  0
   25.7667   -3.0883    0.0000 N   0  0  0  0  0  0  0  0  0  0  0  0
   24.6620   -0.6413    0.0000 N   0  0  0  0  0  0  0  0  0  0  0  0
   19.0045   -3.8252    0.0000 C   0  0  0  0  0  0  0  0  0  0  0  0
   18.4376   -5.2140    0.0000 O   0  0  0  0  0  0  0  0  0  0  0  0
   20.4906   -3.6217    0.0000 N   0  0  0  0  0  0  0  0  0  0  0  0
   21.4099   -4.8070    0.0000 C   0  0  0  0  0  0  0  0  0  0  0  0
   21.8684   -6.2352    0.0000 C   0  0  0  0  0  0  0  0  0  0  0  0
   20.8607   -7.3464    0.0000 C   0  0  0  0  0  0  0  0  0  0  0  0
   22.8960   -4.6035    0.0000 C   0  0  0  0  0  0  0  0  0  0  0  0
   23.7820   -3.3931    0.0000 O   0  0  0  0  0  0  0  0  0  0  0  0
   23.8153   -5.7888    0.0000 N   0  0  0  0  0  0  0  0  0  0  0  0
   25.3015   -5.5853    0.0000 C   0  0  0  0  0  0  0  0  0  0  0  0
   26.6284   -4.8857    0.0000 C   0  0  0  0  0  0  0  0  0  0  0  0
   27.8976   -5.6851    0.0000 C   0  0  0  0  0  0  0  0  0  0  0  0
   29.2245   -4.9856    0.0000 S   0  0  0  0  0  0  0  0  0  0  0  0
   30.4938   -5.7850    0.0000 C   0  0  0  0  0  0  0  0  0  0  0  0
   26.2208   -6.7705    0.0000 C   0  0  0  0  0  0  0  0  0  0  0  0
   27.7206   -6.7497    0.0000 O   0  0  0  0  0  0  0  0  0  0  0  0
   25.6539   -8.1593    0.0000 O   0  0  0  0  0  0  0  0  0  0  0  0
  -16.8583   -8.7522    0.0000 H   0  0  0  0  0  0  0  0  0  0  0  0
  -21.1271   -7.3524    0.0000 H   0  0  0  0  0  0  0  0  0  0  0  0
  -23.4416   -9.2611    0.0000 H   0  0  0  0  0  0  0  0  0  0  0  0
  -17.7359  -11.0056    0.0000 H   0  0  0  0  0  0  0  0  0  0  0  0
  -18.5433  -18.1233    0.0000 H   0  0  0  0  0  0  0  0  0  0  0  0
  -23.6825  -17.3563    0.0000 H   0  0  0  0  0  0  0  0  0  0  0  0
  -23.2397  -14.3892    0.0000 H   0  0  0  0  0  0  0  0  0  0  0  0
  -22.7298  -19.7734    0.0000 H   0  0  0  0  0  0  0  0  0  0  0  0
  -20.0058  -10.3219    0.0000 H   0  0  0  0  0  0  0  0  0  0  0  0
  -17.0356   -9.2599    0.0000 H   0  0  0  0  0  0  0  0  0  0  0  0
  -15.3094  -14.0561    0.0000 H   0  0  0  0  0  0  0  0  0  0  0  0
  -13.6925  -12.0225    0.0000 H   0  0  0  0  0  0  0  0  0  0  0  0
  -16.0024   -6.4937    0.0000 H   0  0  0  0  0  0  0  0  0  0  0  0
  -18.3943   -3.1839    0.0000 H   0  0  0  0  0  0  0  0  0  0  0  0
  -19.0693   -4.9903    0.0000 H   0  0  0  0  0  0  0  0  0  0  0  0
  -15.0843   -3.0339    0.0000 H   0  0  0  0  0  0  0  0  0  0  0  0
  -15.7593   -4.8403    0.0000 H   0  0  0  0  0  0  0  0  0  0  0  0
  -14.1837   -1.6262    0.0000 H   0  0  0  0  0  0  0  0  0  0  0  0
  -17.2505   -0.1228    0.0000 H   0  0  0  0  0  0  0  0  0  0  0  0
  -17.7164    2.6575    0.0000 H   0  0  0  0  0  0  0  0  0  0  0  0
  -17.7328    0.7292    0.0000 H   0  0  0  0  0  0  0  0  0  0  0  0
  -13.4716    1.8842    0.0000 H   0  0  0  0  0  0  0  0  0  0  0  0
  -12.7048    5.3463    0.0000 H   0  0  0  0  0  0  0  0  0  0  0  0
  -14.4658    7.8098    0.0000 H   0  0  0  0  0  0  0  0  0  0  0  0
  -17.3110    8.7611    0.0000 H   0  0  0  0  0  0  0  0  0  0  0  0
  -19.5575    6.7728    0.0000 H   0  0  0  0  0  0  0  0  0  0  0  0
  -18.9587    3.8331    0.0000 H   0  0  0  0  0  0  0  0  0  0  0  0
  -17.1193    2.2446    0.0000 H   0  0  0  0  0  0  0  0  0  0  0  0
  -17.7221    3.8562    0.0000 H   0  0  0  0  0  0  0  0  0  0  0  0
  -17.4867    5.3903    0.0000 H   0  0  0  0  0  0  0  0  0  0  0  0
  -16.4999    6.3949    0.0000 H   0  0  0  0  0  0  0  0  0  0  0  0
  -14.6085    6.7118    0.0000 H   0  0  0  0  0  0  0  0  0  0  0  0
  -13.3481    6.0837    0.0000 H   0  0  0  0  0  0  0  0  0  0  0  0
  -12.7879    2.8497    0.0000 H   0  0  0  0  0  0  0  0  0  0  0  0
  -11.1911    2.5439    0.0000 H   0  0  0  0  0  0  0  0  0  0  0  0
  -11.0651    5.9571    0.0000 H   0  0  0  0  0  0  0  0  0  0  0  0
   -8.7146    7.5136    0.0000 H   0  0  0  0  0  0  0  0  0  0  0  0
  -10.4828    6.7443    0.0000 H   0  0  0  0  0  0  0  0  0  0  0  0
   -6.1854    5.5815    0.0000 H   0  0  0  0  0  0  0  0  0  0  0  0
   -7.5318    4.4104    0.0000 H   0  0  0  0  0  0  0  0  0  0  0  0
   -6.4441    9.6534    0.0000 H   0  0  0  0  0  0  0  0  0  0  0  0
   -7.3478    6.5256    0.0000 H   0  0  0  0  0  0  0  0  0  0  0  0
   -7.2086    2.9715    0.0000 H   0  0  0  0  0  0  0  0  0  0  0  0
   -6.5406    1.6612    0.0000 H   0  0  0  0  0  0  0  0  0  0  0  0
   -6.3058    1.0821    0.0000 H   0  0  0  0  0  0  0  0  0  0  0  0
   -5.5110    0.2635    0.0000 H   0  0  0  0  0  0  0  0  0  0  0  0
   -5.0501   -0.1340    0.0000 H   0  0  0  0  0  0  0  0  0  0  0  0
   -3.7601   -0.8403    0.0000 H   0  0  0  0  0  0  0  0  0  0  0  0
   -2.7927   -1.3902    0.0000 H   0  0  0  0  0  0  0  0  0  0  0  0
   -7.4226    1.8946    0.0000 H   0  0  0  0  0  0  0  0  0  0  0  0
   -8.5868    2.7621    0.0000 H   0  0  0  0  0  0  0  0  0  0  0  0
   -8.3653    4.4186    0.0000 H   0  0  0  0  0  0  0  0  0  0  0  0
   -6.7720    8.1322    0.0000 H   0  0  0  0  0  0  0  0  0  0  0  0
   -6.1439    8.6155    0.0000 H   0  0  0  0  0  0  0  0  0  0  0  0
   -3.5228   10.3620    0.0000 H   0  0  0  0  0  0  0  0  0  0  0  0
   -6.8817   11.8253    0.0000 H   0  0  0  0  0  0  0  0  0  0  0  0
   -7.8903   10.3533    0.0000 H   0  0  0  0  0  0  0  0  0  0  0  0
   -6.7977    8.9678    0.0000 H   0  0  0  0  0  0  0  0  0  0  0  0
   -4.0551   12.7575    0.0000 H   0  0  0  0  0  0  0  0  0  0  0  0
   -3.2846   11.1480    0.0000 H   0  0  0  0  0  0  0  0  0  0  0  0
   -5.7342   13.8395    0.0000 H   0  0  0  0  0  0  0  0  0  0  0  0
   -7.3680   12.8153    0.0000 H   0  0  0  0  0  0  0  0  0  0  0  0
   -6.9429   11.2377    0.0000 H   0  0  0  0  0  0  0  0  0  0  0  0
   -2.3032   11.3371    0.0000 H   0  0  0  0  0  0  0  0  0  0  0  0
   -1.3519   11.1702    0.0000 H   0  0  0  0  0  0  0  0  0  0  0  0
    1.7981   11.6793    0.0000 H   0  0  0  0  0  0  0  0  0  0  0  0
    1.6477   10.2098    0.0000 H   0  0  0  0  0  0  0  0  0  0  0  0
   -1.4790   11.8793    0.0000 H   0  0  0  0  0  0  0  0  0  0  0  0
    0.4920   15.0987    0.0000 H   0  0  0  0  0  0  0  0  0  0  0  0
    2.1364   14.4059    0.0000 H   0  0  0  0  0  0  0  0  0  0  0  0
    1.9547   12.6307    0.0000 H   0  0  0  0  0  0  0  0  0  0  0  0
   -0.7615   15.0844    0.0000 H   0  0  0  0  0  0  0  0  0  0  0  0
   -2.3897   14.3542    0.0000 H   0  0  0  0  0  0  0  0  0  0  0  0
   -2.0332   12.4591    0.0000 H   0  0  0  0  0  0  0  0  0  0  0  0
    3.1705    9.8643    0.0000 H   0  0  0  0  0  0  0  0  0  0  0  0
    3.8035    8.9492    0.0000 H   0  0  0  0  0  0  0  0  0  0  0  0
    6.0705    7.0381    0.0000 H   0  0  0  0  0  0  0  0  0  0  0  0
    4.7525    6.0725    0.0000 H   0  0  0  0  0  0  0  0  0  0  0  0
    5.4706   11.4568    0.0000 H   0  0  0  0  0  0  0  0  0  0  0  0
    5.4318    4.6666    0.0000 H   0  0  0  0  0  0  0  0  0  0  0  0
    3.4793    0.5216    0.0000 H   0  0  0  0  0  0  0  0  0  0  0  0
    4.3797    1.4708    0.0000 H   0  0  0  0  0  0  0  0  0  0  0  0
    2.1622   -0.6092    0.0000 H   0  0  0  0  0  0  0  0  0  0  0  0
    3.1205    0.0101    0.0000 H   0  0  0  0  0  0  0  0  0  0  0  0
    0.2081   -1.2916    0.0000 H   0  0  0  0  0  0  0  0  0  0  0  0
    1.6237   -0.8930    0.0000 H   0  0  0  0  0  0  0  0  0  0  0  0
   -0.8581   -1.6102    0.0000 H   0  0  0  0  0  0  0  0  0  0  0  0
    6.3763    2.7955    0.0000 H   0  0  0  0  0  0  0  0  0  0  0  0
    6.2514    4.5755    0.0000 H   0  0  0  0  0  0  0  0  0  0  0  0
    4.8632    5.0805    0.0000 H   0  0  0  0  0  0  0  0  0  0  0  0
    6.7898    3.5782    0.0000 H   0  0  0  0  0  0  0  0  0  0  0  0
    5.6504    0.3841    0.0000 H   0  0  0  0  0  0  0  0  0  0  0  0
    8.2037   -1.6331    0.0000 H   0  0  0  0  0  0  0  0  0  0  0  0
    8.8925    0.0130    0.0000 H   0  0  0  0  0  0  0  0  0  0  0  0
    8.1029   -3.5390    0.0000 H   0  0  0  0  0  0  0  0  0  0  0  0
    5.2710   -5.1607    0.0000 H   0  0  0  0  0  0  0  0  0  0  0  0
    2.8536   -2.9685    0.0000 H   0  0  0  0  0  0  0  0  0  0  0  0
    8.9894   -1.3457    0.0000 H   0  0  0  0  0  0  0  0  0  0  0  0
   10.4104    1.7336    0.0000 H   0  0  0  0  0  0  0  0  0  0  0  0
   13.2034    2.1160    0.0000 H   0  0  0  0  0  0  0  0  0  0  0  0
   11.2764    2.1901    0.0000 H   0  0  0  0  0  0  0  0  0  0  0  0
   14.7919    0.9050    0.0000 H   0  0  0  0  0  0  0  0  0  0  0  0
   14.3843   -0.9798    0.0000 H   0  0  0  0  0  0  0  0  0  0  0  0
   13.0971   -1.2487    0.0000 H   0  0  0  0  0  0  0  0  0  0  0  0
   14.0062    0.6329    0.0000 H   0  0  0  0  0  0  0  0  0  0  0  0
   12.7913   -2.3943    0.0000 H   0  0  0  0  0  0  0  0  0  0  0  0
   15.4200   -4.5784    0.0000 H   0  0  0  0  0  0  0  0  0  0  0  0
   16.1088   -2.9323    0.0000 H   0  0  0  0  0  0  0  0  0  0  0  0
   12.3175   -5.1006    0.0000 H   0  0  0  0  0  0  0  0  0  0  0  0
   12.5875   -3.3367    0.0000 H   0  0  0  0  0  0  0  0  0  0  0  0
   13.5537   -8.3687    0.0000 H   0  0  0  0  0  0  0  0  0  0  0  0
   11.6292   -6.6234    0.0000 H   0  0  0  0  0  0  0  0  0  0  0  0
   16.2057   -4.2910    0.0000 H   0  0  0  0  0  0  0  0  0  0  0  0
   17.6267   -1.2117    0.0000 H   0  0  0  0  0  0  0  0  0  0  0  0
   20.2767   -0.7147    0.0000 H   0  0  0  0  0  0  0  0  0  0  0  0
   18.4927   -0.7552    0.0000 H   0  0  0  0  0  0  0  0  0  0  0  0
   21.6006   -3.9251    0.0000 H   0  0  0  0  0  0  0  0  0  0  0  0
   20.3134   -4.1940    0.0000 H   0  0  0  0  0  0  0  0  0  0  0  0
   23.0158   -0.9291    0.0000 H   0  0  0  0  0  0  0  0  0  0  0  0
   21.2402   -0.7518    0.0000 H   0  0  0  0  0  0  0  0  0  0  0  0
   23.5842   -4.3080    0.0000 H   0  0  0  0  0  0  0  0  0  0  0  0
   27.2005   -2.2400    0.0000 H   0  0  0  0  0  0  0  0  0  0  0  0
   25.9889    0.0583    0.0000 H   0  0  0  0  0  0  0  0  0  0  0  0
   23.3928    0.1581    0.0000 H   0  0  0  0  0  0  0  0  0  0  0  0
   21.3766   -2.4114    0.0000 H   0  0  0  0  0  0  0  0  0  0  0  0
   20.0076   -5.3396    0.0000 H   0  0  0  0  0  0  0  0  0  0  0  0
   22.6363   -7.5237    0.0000 H   0  0  0  0  0  0  0  0  0  0  0  0
   23.3251   -5.8776    0.0000 H   0  0  0  0  0  0  0  0  0  0  0  0
   21.3192   -8.7746    0.0000 H   0  0  0  0  0  0  0  0  0  0  0  0
   19.5338   -8.0459    0.0000 H   0  0  0  0  0  0  0  0  0  0  0  0
   19.8038   -6.2820    0.0000 H   0  0  0  0  0  0  0  0  0  0  0  0
   23.4220   -7.2363    0.0000 H   0  0  0  0  0  0  0  0  0  0  0  0
   24.8430   -4.1571    0.0000 H   0  0  0  0  0  0  0  0  0  0  0  0
   27.6360   -3.7746    0.0000 H   0  0  0  0  0  0  0  0  0  0  0  0
   25.5714   -3.8214    0.0000 H   0  0  0  0  0  0  0  0  0  0  0  0
   28.6656   -6.9736    0.0000 H   0  0  0  0  0  0  0  0  0  0  0  0
   27.3552   -7.0836    0.0000 H   0  0  0  0  0  0  0  0  0  0  0  0
   31.8207   -5.0855    0.0000 H   0  0  0  0  0  0  0  0  0  0  0  0
   31.4131   -6.9702    0.0000 H   0  0  0  0  0  0  0  0  0  0  0  0
   29.6291   -7.0107    0.0000 H   0  0  0  0  0  0  0  0  0  0  0  0
   26.5732   -9.3446    0.0000 H   0  0  0  0  0  0  0  0  0  0  0  0
  1  2  1  0
  2  3  1  0
  3  4  2  0
  4  5  1  0
  5  6  2  0
  6  7  1  0
  7  8  2  0
  7  9  1  0
  9 10  1  0
 10 11  1  0
 11 12  2  0
  9 13  1  0
 13 14  1  0
 14 15  2  0
 15 16  1  0
 16 17  2  0
 17 18  1  0
 16 19  1  0
 14 20  1  0
 20 21  1  0
 21 22  2  0
 22 23  1  0
 23 24  2  0
 24 25  1  0
 25 26  2  0
 25 27  1  0
  1 28  2  0
  1 29  1  0
 29 30  1  0
 30 31  1  0
 31 32  1  0
 32 33  2  0
 32 34  1  0
 34 35  1  0
 35 36  1  0
 36 37  1  0
 37 38  2  0
 38 39  1  0
 39 40  1  0
 40 41  2  0
 41 42  1  0
 42 43  2  0
 43 44  1  0
 44 45  2  0
 35 46  1  0
 46 47  2  0
 46 48  1  0
 48 49  1  0
 49 50  1  0
 50 51  1  0
 51 52  1  0
 52 53  1  0
 53 54  2  0
 53 55  1  0
 55 56  1  0
 56 57  1  0
 57 58  1  0
 58 59  1  0
 59 60  2  0
 59 61  1  0
 56 62  1  0
 62 63  2  0
 62 64  1  0
 65 64  1  6
 65 66  1  0
 66 67  1  0
 67 68  1  0
 68 69  1  0
 65 70  1  0
 65 71  1  0
 71 72  2  0
 71 73  1  0
 73 74  1  0
 74 75  1  0
 75 76  1  0
 75 77  1  0
 77 78  1  0
 74 79  1  0
 79 80  2  0
 79 81  1  0
 81 82  1  0
 82 83  1  0
 83 84  1  0
 84 85  1  0
 84 86  1  0
 82 87  1  0
 87 88  2  0
 87 89  1  0
 89 90  1  0
 90 91  1  0
 91 92  1  0
 92 93  2  0
 92 94  1  0
 90 95  1  0
 95 96  2  0
 95 97  1  0
 97 98  1  0
 98 99  1  0
 99100  1  0
100101  1  0
101102  1  0
 98103  1  0
 98104  1  6
104105  2  0
104106  1  0
106107  1  0
107108  1  0
108109  1  0
109110  2  0
110111  1  0
111112  1  0
112113  2  0
107114  1  0
114115  2  0
114116  1  0
116117  1  0
117118  1  0
118119  1  0
117120  1  0
120121  2  0
120122  1  0
122123  1  0
123124  1  0
124125  1  0
125126  1  0
126127  1  0
126128  2  0
123129  1  0
129130  2  0
129131  1  0
131132  1  0
132133  1  0
133134  1  0
134135  1  0
135136  1  0
136137  1  0
137138  2  3
137139  1  0
132140  1  0
140141  2  0
140142  1  0
142143  1  0
143144  1  0
144145  1  0
143146  1  0
146147  2  0
146148  1  0
148149  1  0
149150  1  0
150151  1  0
151152  1  0
152153  1  0
149154  1  0
154155  2  0
154156  1  0
  8  3  1  0
 45 37  1  0
 52 48  1  0
113109  1  0
 11  6  1  0
 45 40  1  0
 69102  2  0
 18 13  2  0
 22  9  1  0
 26 21  1  0
  2157  1  0
  4158  1  0
  5159  1  0
  8160  1  0
 15161  1  0
 17162  1  0
 18163  1  0
 19164  1  0
 23165  1  0
 24166  1  0
 26167  1  0
 27168  1  0
 29169  1  0
 30170  1  0
 30171  1  0
 31172  1  0
 31173  1  0
 34174  1  0
 35175  1  1
 36176  1  0
 36177  1  0
 38178  1  0
 39179  1  0
 41180  1  0
 42181  1  0
 43182  1  0
 44183  1  0
 49184  1  0
 49185  1  0
 50186  1  0
 50187  1  0
 51188  1  0
 51189  1  0
 52190  1  0
 55191  1  0
 56192  1  1
 57193  1  0
 57194  1  0
 58195  1  0
 58196  1  0
 61197  1  0
 64198  1  0
 66199  1  0
 66200  1  0
 67201  1  0
 67202  1  0
 68203  1  0
 68204  1  0
 69205  1  0
 70206  1  0
 70207  1  0
 70208  1  0
 73209  1  0
 74210  1  1
 75211  1  6
 76212  1  0
 76213  1  0
 76214  1  0
 77215  1  0
 77216  1  0
 78217  1  0
 78218  1  0
 78219  1  0
 81220  1  0
 82221  1  1
 83222  1  0
 83223  1  0
 84224  1  0
 85225  1  0
 85226  1  0
 85227  1  0
 86228  1  0
 86229  1  0
 86230  1  0
 89231  1  0
 90232  1  1
 91233  1  0
 91234  1  0
 94235  1  0
 97236  1  0
 99237  1  0
 99238  1  0
100239  1  0
100240  1  0
101241  1  0
101242  1  0
102243  1  0
103244  1  0
103245  1  0
103246  1  0
106247  1  0
107248  1  6
108249  1  0
108250  1  0
110251  1  0
111252  1  0
112253  1  0
116254  1  0
117255  1  1
118256  1  0
118257  1  0
119258  1  0
119259  1  0
119260  1  0
122261  1  0
123262  1  6
124263  1  0
124264  1  0
125265  1  0
125266  1  0
127267  1  0
127268  1  0
131269  1  0
132270  1  1
133271  1  0
133272  1  0
134273  1  0
134274  1  0
135275  1  0
135276  1  0
136277  1  0
138278  1  0
139279  1  0
139280  1  0
142281  1  0
143282  1  6
144283  1  0
144284  1  0
145285  1  0
145286  1  0
145287  1  0
148288  1  0
149289  1  1
150290  1  0
150291  1  0
151292  1  0
151293  1  0
153294  1  0
153295  1  0
153296  1  0
156297  1  0
M  END
