
     RDKit          2D

263265  0  0  0  0  0  0  0  0999 V2000
  -21.8118   -0.1529    0.0000 N   0  0  0  0  0  0  0  0  0  0  0  0
  -20.4364   -0.7515    0.0000 C   0  0  0  0  0  0  0  0  0  0  0  0
  -20.2672   -2.2419    0.0000 C   0  0  0  0  0  0  0  0  0  0  0  0
  -18.8918   -2.8405    0.0000 C   0  0  0  0  0  0  0  0  0  0  0  0
  -17.6857   -1.9488    0.0000 O   0  0  0  0  0  0  0  0  0  0  0  0
  -18.7226   -4.3310    0.0000 N   0  0  0  0  0  0  0  0  0  0  0  0
  -17.3472   -4.9296    0.0000 C   0  0  0  0  0  0  0  0  0  0  0  0
  -18.1756   -6.1801    0.0000 C   0  0  0  0  0  0  0  0  0  0  0  0
  -19.6727   -6.0880    0.0000 C   0  0  0  0  0  0  0  0  0  0  0  0
  -20.5011   -7.3385    0.0000 N   0  0  0  0  0  0  0  0  0  0  0  0
  -20.5002   -4.8369    0.0000 O   0  0  0  0  0  0  0  0  0  0  0  0
  -15.8500   -5.0217    0.0000 C   0  0  0  0  0  0  0  0  0  0  0  0
  -15.3499   -6.4359    0.0000 O   0  0  0  0  0  0  0  0  0  0  0  0
  -15.0217   -3.7712    0.0000 N   0  0  0  0  0  0  0  0  0  0  0  0
  -13.5245   -3.8633    0.0000 C   0  0  0  0  0  0  0  0  0  0  0  0
  -13.8752   -5.3218    0.0000 C   0  0  0  0  0  0  0  0  0  0  0  0
  -12.7875   -6.3547    0.0000 C   0  0  0  0  0  0  0  0  0  0  0  0
  -13.1382   -7.8131    0.0000 C   0  0  0  0  0  0  0  0  0  0  0  0
  -12.0506   -8.8461    0.0000 N   0  0  0  0  0  0  0  0  0  0  0  0
  -14.5766   -8.2386    0.0000 O   0  0  0  0  0  0  0  0  0  0  0  0
  -12.0861   -3.4378    0.0000 C   0  0  0  0  0  0  0  0  0  0  0  0
  -10.9984   -4.4708    0.0000 O   0  0  0  0  0  0  0  0  0  0  0  0
  -11.7354   -1.9794    0.0000 N   0  0  0  0  0  0  0  0  0  0  0  0
  -10.2970   -1.5539    0.0000 C   0  0  0  0  0  0  0  0  0  0  0  0
  -10.9658   -0.2113    0.0000 C   0  0  0  0  0  0  0  0  0  0  0  0
  -12.4630   -0.1192    0.0000 C   0  0  0  0  0  0  0  0  0  0  0  0
  -13.2905    1.1320    0.0000 C   0  0  0  0  0  0  0  0  0  0  0  0
  -13.9014   -0.5446    0.0000 C   0  0  0  0  0  0  0  0  0  0  0  0
   -8.7998   -1.6461    0.0000 C   0  0  0  0  0  0  0  0  0  0  0  0
   -8.1301   -0.3039    0.0000 O   0  0  0  0  0  0  0  0  0  0  0  0
   -8.1310   -2.9887    0.0000 N   0  0  0  0  0  0  0  0  0  0  0  0
   -6.6339   -3.0808    0.0000 C   0  0  0  0  0  0  0  0  0  0  0  0
   -5.8005   -4.3280    0.0000 C   0  0  0  0  0  0  0  0  0  0  0  0
   -4.7461   -5.3949    0.0000 C   0  0  0  0  0  0  0  0  0  0  0  0
   -3.5089   -6.2431    0.0000 C   0  0  0  0  0  0  0  0  0  0  0  0
   -2.1335   -6.8417    0.0000 C   0  0  0  0  0  0  0  0  0  0  0  0
   -0.6697   -7.1692    0.0000 C   0  0  0  0  0  0  0  0  0  0  0  0
    0.8296   -7.2138    0.0000 C   0  0  0  0  0  0  0  0  0  0  0  0
    2.3103   -6.9738    0.0000 C   0  0  0  0  0  0  0  0  0  0  0  0
   -7.5342   -4.2806    0.0000 C   0  0  0  0  0  0  0  0  0  0  0  0
   -7.2162   -1.6985    0.0000 C   0  0  0  0  0  0  0  0  0  0  0  0
   -8.0119   -1.7455    0.0000 O   0  0  0  0  0  0  0  0  0  0  0  0
   -7.5263   -0.2309    0.0000 N   0  0  0  0  0  0  0  0  0  0  0  0
   -7.5531    1.2689    0.0000 C   0  0  0  0  0  0  0  0  0  0  0  0
   -8.8850    0.5789    0.0000 C   0  0  0  0  0  0  0  0  0  0  0  0
  -10.1485    1.3873    0.0000 C   0  0  0  0  0  0  0  0  0  0  0  0
  -11.5546    0.8648    0.0000 C   0  0  0  0  0  0  0  0  0  0  0  0
  -11.0593    2.5791    0.0000 C   0  0  0  0  0  0  0  0  0  0  0  0
   -7.2956    2.7466    0.0000 C   0  0  0  0  0  0  0  0  0  0  0  0
   -8.6831    3.3168    0.0000 O   0  0  0  0  0  0  0  0  0  0  0  0
   -6.7631    4.1489    0.0000 N   0  0  0  0  0  0  0  0  0  0  0  0
   -5.9749    5.4251    0.0000 C   0  0  0  0  0  0  0  0  0  0  0  0
   -7.4683    5.5647    0.0000 C   0  0  0  0  0  0  0  0  0  0  0  0
   -8.0942    6.9278    0.0000 O   0  0  0  0  0  0  0  0  0  0  0  0
   -4.9593    6.5290    0.0000 C   0  0  0  0  0  0  0  0  0  0  0  0
   -5.9617    7.6449    0.0000 O   0  0  0  0  0  0  0  0  0  0  0  0
   -3.7532    7.4208    0.0000 N   0  0  0  0  0  0  0  0  0  0  0  0
   -2.4001    8.0682    0.0000 C   0  0  0  0  0  0  0  0  0  0  0  0
   -3.5810    8.9931    0.0000 C   0  0  0  0  0  0  0  0  0  0  0  0
   -3.3706   10.4782    0.0000 C   0  0  0  0  0  0  0  0  0  0  0  0
   -1.9791   11.0385    0.0000 C   0  0  0  0  0  0  0  0  0  0  0  0
   -1.7686   12.5237    0.0000 C   0  0  0  0  0  0  0  0  0  0  0  0
   -2.9496   13.4485    0.0000 C   0  0  0  0  0  0  0  0  0  0  0  0
   -4.3410   12.8883    0.0000 C   0  0  0  0  0  0  0  0  0  0  0  0
   -4.5515   11.4031    0.0000 C   0  0  0  0  0  0  0  0  0  0  0  0
   -0.9489    8.4478    0.0000 C   0  0  0  0  0  0  0  0  0  0  0  0
   -1.0066    9.9467    0.0000 O   0  0  0  0  0  0  0  0  0  0  0  0
    0.5478    8.5460    0.0000 N   0  0  0  0  0  0  0  0  0  0  0  0
    2.0362    8.3591    0.0000 C   0  0  0  0  0  0  0  0  0  0  0  0
    1.5427    9.7756    0.0000 C   0  0  0  0  0  0  0  0  0  0  0  0
    2.5227   10.9112    0.0000 C   0  0  0  0  0  0  0  0  0  0  0  0
    3.9962   10.6303    0.0000 C   0  0  0  0  0  0  0  0  0  0  0  0
    4.9762   11.7659    0.0000 C   0  0  0  0  0  0  0  0  0  0  0  0
    4.4827   13.1824    0.0000 C   0  0  0  0  0  0  0  0  0  0  0  0
    3.0093   13.4633    0.0000 C   0  0  0  0  0  0  0  0  0  0  0  0
    2.0293   12.3277    0.0000 C   0  0  0  0  0  0  0  0  0  0  0  0
    3.4622    7.8939    0.0000 C   0  0  0  0  0  0  0  0  0  0  0  0
    4.2240    9.1860    0.0000 O   0  0  0  0  0  0  0  0  0  0  0  0
    4.7744    7.1672    0.0000 N   0  0  0  0  0  0  0  0  0  0  0  0
    5.9254    6.2054    0.0000 C   0  0  0  0  0  0  0  0  0  0  0  0
    6.2761    7.6638    0.0000 C   0  0  0  0  0  0  0  0  0  0  0  0
    6.8736    5.0431    0.0000 C   0  0  0  0  0  0  0  0  0  0  0  0
    8.1208    5.8764    0.0000 O   0  0  0  0  0  0  0  0  0  0  0  0
    7.5847    3.7223    0.0000 N   0  0  0  0  0  0  0  0  0  0  0  0
    8.0329    2.2908    0.0000 C   0  0  0  0  0  0  0  0  0  0  0  0
    9.1164    3.3281    0.0000 C   0  0  0  0  0  0  0  0  0  0  0  0
   10.5565    2.9084    0.0000 C   0  0  0  0  0  0  0  0  0  0  0  0
   11.6401    3.9457    0.0000 C   0  0  0  0  0  0  0  0  0  0  0  0
   13.0801    3.5260    0.0000 N   0  0  0  0  0  0  0  0  0  0  0  0
   14.1637    4.5633    0.0000 C   0  0  0  0  0  0  0  0  0  0  0  0
   15.6037    4.1436    0.0000 N   0  0  0  0  0  0  0  0  0  0  0  0
   13.8071    6.0203    0.0000 N   0  0  0  0  0  0  0  0  0  0  0  0
    8.2022    0.8004    0.0000 C   0  0  0  0  0  0  0  0  0  0  0  0
    9.6940    0.6442    0.0000 O   0  0  0  0  0  0  0  0  0  0  0  0
    8.0863   -0.6951    0.0000 N   0  0  0  0  0  0  0  0  0  0  0  0
    7.6895   -2.1417    0.0000 C   0  0  0  0  0  0  0  0  0  0  0  0
    7.0261   -3.4870    0.0000 C   0  0  0  0  0  0  0  0  0  0  0  0
    6.1201   -4.6825    0.0000 C   0  0  0  0  0  0  0  0  0  0  0  0
    5.0042   -5.6848    0.0000 C   0  0  0  0  0  0  0  0  0  0  0  0
    3.7188   -6.4580    0.0000 C   0  0  0  0  0  0  0  0  0  0  0  0
    8.7388   -3.2136    0.0000 C   0  0  0  0  0  0  0  0  0  0  0  0
    9.1618   -1.8548    0.0000 C   0  0  0  0  0  0  0  0  0  0  0  0
    9.8188   -0.5064    0.0000 O   0  0  0  0  0  0  0  0  0  0  0  0
   10.1464   -2.9865    0.0000 N   0  0  0  0  0  0  0  0  0  0  0  0
   11.6187   -2.6996    0.0000 C   0  0  0  0  0  0  0  0  0  0  0  0
   12.9041   -1.9265    0.0000 C   0  0  0  0  0  0  0  0  0  0  0  0
   14.2164   -2.6532    0.0000 C   0  0  0  0  0  0  0  0  0  0  0  0
   15.5018   -1.8801    0.0000 O   0  0  0  0  0  0  0  0  0  0  0  0
   14.6053   -4.1019    0.0000 O   0  0  0  0  0  0  0  0  0  0  0  0
   12.6033   -3.8313    0.0000 C   0  0  0  0  0  0  0  0  0  0  0  0
   12.1155   -5.2498    0.0000 O   0  0  0  0  0  0  0  0  0  0  0  0
   14.0756   -3.5444    0.0000 N   0  0  0  0  0  0  0  0  0  0  0  0
   15.0602   -4.6761    0.0000 C   0  0  0  0  0  0  0  0  0  0  0  0
   15.5983   -6.0762    0.0000 C   0  0  0  0  0  0  0  0  0  0  0  0
   17.0799   -6.3103    0.0000 C   0  0  0  0  0  0  0  0  0  0  0  0
   17.6181   -7.7104    0.0000 C   0  0  0  0  0  0  0  0  0  0  0  0
   19.0601   -8.1233    0.0000 N   0  0  0  0  0  0  0  0  0  0  0  0
   16.6746   -8.8765    0.0000 O   0  0  0  0  0  0  0  0  0  0  0  0
   16.5325   -4.3893    0.0000 C   0  0  0  0  0  0  0  0  0  0  0  0
   17.0202   -2.9708    0.0000 O   0  0  0  0  0  0  0  0  0  0  0  0
   17.5171   -5.5209    0.0000 N   0  0  0  0  0  0  0  0  0  0  0  0
   18.9894   -5.2341    0.0000 C   0  0  0  0  0  0  0  0  0  0  0  0
   20.2748   -4.4610    0.0000 C   0  0  0  0  0  0  0  0  0  0  0  0
   21.5870   -5.1876    0.0000 C   0  0  0  0  0  0  0  0  0  0  0  0
   21.2183   -3.2949    0.0000 C   0  0  0  0  0  0  0  0  0  0  0  0
   20.6801   -1.8947    0.0000 C   0  0  0  0  0  0  0  0  0  0  0  0
   19.9739   -6.3657    0.0000 C   0  0  0  0  0  0  0  0  0  0  0  0
   21.4702   -6.2605    0.0000 O   0  0  0  0  0  0  0  0  0  0  0  0
   19.6627   -7.8331    0.0000 O   0  0  0  0  0  0  0  0  0  0  0  0
  -21.9811    1.3376    0.0000 H   0  0  0  0  0  0  0  0  0  0  0  0
  -23.0179   -1.0446    0.0000 H   0  0  0  0  0  0  0  0  0  0  0  0
  -20.0857    0.7069    0.0000 H   0  0  0  0  0  0  0  0  0  0  0  0
  -18.9393   -0.8436    0.0000 H   0  0  0  0  0  0  0  0  0  0  0  0
  -21.7644   -2.1498    0.0000 H   0  0  0  0  0  0  0  0  0  0  0  0
  -20.6179   -3.7003    0.0000 H   0  0  0  0  0  0  0  0  0  0  0  0
  -20.0284   -5.0691    0.0000 H   0  0  0  0  0  0  0  0  0  0  0  0
  -16.9965   -3.4712    0.0000 H   0  0  0  0  0  0  0  0  0  0  0  0
  -18.5263   -7.6386    0.0000 H   0  0  0  0  0  0  0  0  0  0  0  0
  -16.8002   -6.7788    0.0000 H   0  0  0  0  0  0  0  0  0  0  0  0
  -21.9983   -7.2464    0.0000 H   0  0  0  0  0  0  0  0  0  0  0  0
  -19.8323   -8.6812    0.0000 H   0  0  0  0  0  0  0  0  0  0  0  0
  -15.6905   -2.4286    0.0000 H   0  0  0  0  0  0  0  0  0  0  0  0
  -13.8742   -2.4047    0.0000 H   0  0  0  0  0  0  0  0  0  0  0  0
  -14.5450   -6.6639    0.0000 H   0  0  0  0  0  0  0  0  0  0  0  0
  -15.3546   -5.0737    0.0000 H   0  0  0  0  0  0  0  0  0  0  0  0
  -11.4122   -6.9533    0.0000 H   0  0  0  0  0  0  0  0  0  0  0  0
  -11.9592   -5.1042    0.0000 H   0  0  0  0  0  0  0  0  0  0  0  0
  -12.4013  -10.3045    0.0000 H   0  0  0  0  0  0  0  0  0  0  0  0
  -10.6122   -8.4206    0.0000 H   0  0  0  0  0  0  0  0  0  0  0  0
  -13.0407   -1.2404    0.0000 H   0  0  0  0  0  0  0  0  0  0  0  0
  -10.1278   -3.0444    0.0000 H   0  0  0  0  0  0  0  0  0  0  0  0
  -11.1351    1.2791    0.0000 H   0  0  0  0  0  0  0  0  0  0  0  0
   -9.4961   -0.5110    0.0000 H   0  0  0  0  0  0  0  0  0  0  0  0
  -12.8392   -1.5712    0.0000 H   0  0  0  0  0  0  0  0  0  0  0  0
  -14.6066    1.4974    0.0000 H   0  0  0  0  0  0  0  0  0  0  0  0
  -13.4938    2.7008    0.0000 H   0  0  0  0  0  0  0  0  0  0  0  0
  -11.7560    1.8211    0.0000 H   0  0  0  0  0  0  0  0  0  0  0  0
  -14.4272   -1.9494    0.0000 H   0  0  0  0  0  0  0  0  0  0  0  0
  -15.3985   -0.4525    0.0000 H   0  0  0  0  0  0  0  0  0  0  0  0
  -14.2510    0.9140    0.0000 H   0  0  0  0  0  0  0  0  0  0  0  0
   -9.1057   -4.1289    0.0000 H   0  0  0  0  0  0  0  0  0  0  0  0
   -6.4575   -5.6765    0.0000 H   0  0  0  0  0  0  0  0  0  0  0  0
   -7.2534   -4.7008    0.0000 H   0  0  0  0  0  0  0  0  0  0  0  0
   -5.1361   -6.8434    0.0000 H   0  0  0  0  0  0  0  0  0  0  0  0
   -6.1023   -6.0359    0.0000 H   0  0  0  0  0  0  0  0  0  0  0  0
   -3.6177   -7.7391    0.0000 H   0  0  0  0  0  0  0  0  0  0  0  0
   -4.7192   -7.1291    0.0000 H   0  0  0  0  0  0  0  0  0  0  0  0
   -1.9572   -8.3313    0.0000 H   0  0  0  0  0  0  0  0  0  0  0  0
   -3.1543   -7.9408    0.0000 H   0  0  0  0  0  0  0  0  0  0  0  0
   -0.2147   -8.5985    0.0000 H   0  0  0  0  0  0  0  0  0  0  0  0
   -1.4640   -8.4416    0.0000 H   0  0  0  0  0  0  0  0  0  0  0  0
    1.7021   -8.4339    0.0000 H   0  0  0  0  0  0  0  0  0  0  0  0
    0.2905   -8.6135    0.0000 H   0  0  0  0  0  0  0  0  0  0  0  0
    2.6899   -8.4250    0.0000 H   0  0  0  0  0  0  0  0  0  0  0  0
   -8.8586   -4.5478    0.0000 H   0  0  0  0  0  0  0  0  0  0  0  0
   -7.6388   -5.8591    0.0000 H   0  0  0  0  0  0  0  0  0  0  0  0
   -6.1650   -5.2518    0.0000 H   0  0  0  0  0  0  0  0  0  0  0  0
   -8.9315   -0.7558    0.0000 H   0  0  0  0  0  0  0  0  0  0  0  0
   -8.6457    2.2966    0.0000 H   0  0  0  0  0  0  0  0  0  0  0  0
   -9.7584   -0.6406    0.0000 H   0  0  0  0  0  0  0  0  0  0  0  0
   -8.1263   -0.7151    0.0000 H   0  0  0  0  0  0  0  0  0  0  0  0
   -9.4303    2.7041    0.0000 H   0  0  0  0  0  0  0  0  0  0  0  0
  -12.7439    1.5057    0.0000 H   0  0  0  0  0  0  0  0  0  0  0  0
  -12.8891    0.0152    0.0000 H   0  0  0  0  0  0  0  0  0  0  0  0
  -10.4112   -0.3644    0.0000 H   0  0  0  0  0  0  0  0  0  0  0  0
  -12.5494    2.7519    0.0000 H   0  0  0  0  0  0  0  0  0  0  0  0
  -11.5076    4.0105    0.0000 H   0  0  0  0  0  0  0  0  0  0  0  0
   -9.7275    3.2691    0.0000 H   0  0  0  0  0  0  0  0  0  0  0  0
   -8.1793    4.6434    0.0000 H   0  0  0  0  0  0  0  0  0  0  0  0
   -6.5130    6.8252    0.0000 H   0  0  0  0  0  0  0  0  0  0  0  0
   -8.9550    5.3647    0.0000 H   0  0  0  0  0  0  0  0  0  0  0  0
   -7.7119    4.0846    0.0000 H   0  0  0  0  0  0  0  0  0  0  0  0
   -9.5877    7.0674    0.0000 H   0  0  0  0  0  0  0  0  0  0  0  0
   -4.6772    8.6024    0.0000 H   0  0  0  0  0  0  0  0  0  0  0  0
   -2.0958    9.5370    0.0000 H   0  0  0  0  0  0  0  0  0  0  0  0
   -4.9397    9.6286    0.0000 H   0  0  0  0  0  0  0  0  0  0  0  0
   -4.5861    7.8796    0.0000 H   0  0  0  0  0  0  0  0  0  0  0  0
   -0.6943   10.2645    0.0000 H   0  0  0  0  0  0  0  0  0  0  0  0
   -0.3772   13.0840    0.0000 H   0  0  0  0  0  0  0  0  0  0  0  0
   -2.7391   14.9337    0.0000 H   0  0  0  0  0  0  0  0  0  0  0  0
   -5.5219   13.8131    0.0000 H   0  0  0  0  0  0  0  0  0  0  0  0
   -5.9429   10.8428    0.0000 H   0  0  0  0  0  0  0  0  0  0  0  0
    0.4093   10.0396    0.0000 H   0  0  0  0  0  0  0  0  0  0  0  0
    3.0862    9.4302    0.0000 H   0  0  0  0  0  0  0  0  0  0  0  0
    0.7433   11.0448    0.0000 H   0  0  0  0  0  0  0  0  0  0  0  0
    0.0952    9.3822    0.0000 H   0  0  0  0  0  0  0  0  0  0  0  0
    4.6586    9.2845    0.0000 H   0  0  0  0  0  0  0  0  0  0  0  0
    6.4497   11.4850    0.0000 H   0  0  0  0  0  0  0  0  0  0  0  0
    5.4628   14.3180    0.0000 H   0  0  0  0  0  0  0  0  0  0  0  0
    2.5158   14.8798    0.0000 H   0  0  0  0  0  0  0  0  0  0  0  0
    0.5558   12.6086    0.0000 H   0  0  0  0  0  0  0  0  0  0  0  0
    5.4654    8.4986    0.0000 H   0  0  0  0  0  0  0  0  0  0  0  0
    7.3879    6.5388    0.0000 H   0  0  0  0  0  0  0  0  0  0  0  0
    7.7145    8.0893    0.0000 H   0  0  0  0  0  0  0  0  0  0  0  0
    6.2898    9.1637    0.0000 H   0  0  0  0  0  0  0  0  0  0  0  0
    4.8458    8.1155    0.0000 H   0  0  0  0  0  0  0  0  0  0  0  0
    8.8857    4.4688    0.0000 H   0  0  0  0  0  0  0  0  0  0  0  0
    9.3708    1.6125    0.0000 H   0  0  0  0  0  0  0  0  0  0  0  0
    9.7798    4.6735    0.0000 H   0  0  0  0  0  0  0  0  0  0  0  0
    8.1573    4.4814    0.0000 H   0  0  0  0  0  0  0  0  0  0  0  0
   11.7662    2.0215    0.0000 H   0  0  0  0  0  0  0  0  0  0  0  0
   10.2384    1.4426    0.0000 H   0  0  0  0  0  0  0  0  0  0  0  0
   12.3034    5.2911    0.0000 H   0  0  0  0  0  0  0  0  0  0  0  0
   10.5475    4.9735    0.0000 H   0  0  0  0  0  0  0  0  0  0  0  0
   13.4367    2.0690    0.0000 H   0  0  0  0  0  0  0  0  0  0  0  0
   16.6873    5.1809    0.0000 H   0  0  0  0  0  0  0  0  0  0  0  0
   15.9603    2.6866    0.0000 H   0  0  0  0  0  0  0  0  0  0  0  0
   14.8906    7.0576    0.0000 H   0  0  0  0  0  0  0  0  0  0  0  0
   12.3670    6.4400    0.0000 H   0  0  0  0  0  0  0  0  0  0  0  0
    9.5844   -0.7706    0.0000 H   0  0  0  0  0  0  0  0  0  0  0  0
    8.5153   -3.6668    0.0000 H   0  0  0  0  0  0  0  0  0  0  0  0
    7.6949   -4.8296    0.0000 H   0  0  0  0  0  0  0  0  0  0  0  0
    7.4818   -5.3116    0.0000 H   0  0  0  0  0  0  0  0  0  0  0  0
    6.6958   -6.0676    0.0000 H   0  0  0  0  0  0  0  0  0  0  0  0
    6.3199   -6.4053    0.0000 H   0  0  0  0  0  0  0  0  0  0  0  0
    5.1261   -7.1799    0.0000 H   0  0  0  0  0  0  0  0  0  0  0  0
    4.3662   -7.8110    0.0000 H   0  0  0  0  0  0  0  0  0  0  0  0
    8.4089   -4.8465    0.0000 H   0  0  0  0  0  0  0  0  0  0  0  0
    9.7423   -4.2721    0.0000 H   0  0  0  0  0  0  0  0  0  0  0  0
    9.8279   -2.4710    0.0000 H   0  0  0  0  0  0  0  0  0  0  0  0
    9.8352   -4.4538    0.0000 H   0  0  0  0  0  0  0  0  0  0  0  0
   11.0806   -1.2995    0.0000 H   0  0  0  0  0  0  0  0  0  0  0  0
   13.8476   -0.7604    0.0000 H   0  0  0  0  0  0  0  0  0  0  0  0
   11.9196   -0.7949    0.0000 H   0  0  0  0  0  0  0  0  0  0  0  0
   14.8921   -2.2861    0.0000 H   0  0  0  0  0  0  0  0  0  0  0  0
   13.7747   -5.4492    0.0000 H   0  0  0  0  0  0  0  0  0  0  0  0
   15.6251   -7.5760    0.0000 H   0  0  0  0  0  0  0  0  0  0  0  0
   14.1260   -6.3631    0.0000 H   0  0  0  0  0  0  0  0  0  0  0  0
   18.5523   -6.0234    0.0000 H   0  0  0  0  0  0  0  0  0  0  0  0
   17.7605   -4.9735    0.0000 H   0  0  0  0  0  0  0  0  0  0  0  0
   19.6379   -9.3446    0.0000 H   0  0  0  0  0  0  0  0  0  0  0  0
   20.4600   -7.2201    0.0000 H   0  0  0  0  0  0  0  0  0  0  0  0
   17.3870   -7.0153    0.0000 H   0  0  0  0  0  0  0  0  0  0  0  0
   18.4512   -3.8339    0.0000 H   0  0  0  0  0  0  0  0  0  0  0  0
   19.1596   -3.4578    0.0000 H   0  0  0  0  0  0  0  0  0  0  0  0
   22.9571   -4.5770    0.0000 H   0  0  0  0  0  0  0  0  0  0  0  0
   22.5716   -6.3193    0.0000 H   0  0  0  0  0  0  0  0  0  0  0  0
   21.3016   -6.6602    0.0000 H   0  0  0  0  0  0  0  0  0  0  0  0
   22.5037   -2.5218    0.0000 H   0  0  0  0  0  0  0  0  0  0  0  0
   22.3335   -4.2981    0.0000 H   0  0  0  0  0  0  0  0  0  0  0  0
   21.6236   -0.7286    0.0000 H   0  0  0  0  0  0  0  0  0  0  0  0
   19.6956   -0.7631    0.0000 H   0  0  0  0  0  0  0  0  0  0  0  0
   19.3101   -2.5054    0.0000 H   0  0  0  0  0  0  0  0  0  0  0  0
  1  2  1  0
  2  3  1  0
  3  4  1  0
  4  5  2  0
  4  6  1  0
  6  7  1  0
  7  8  1  0
  8  9  1  0
  9 10  1  0
  9 11  2  0
  7 12  1  0
 12 13  2  0
 12 14  1  0
 14 15  1  0
 15 16  1  0
 16 17  1  0
 17 18  1  0
 18 19  1  0
 18 20  2  0
 15 21  1  0
 21 22  2  0
 21 23  1  0
 23 24  1  0
 24 25  1  0
 25 26  1  0
 26 27  1  0
 26 28  1  0
 24 29  1  0
 29 30  2  0
 29 31  1  0
 32 31  1  1
 32 33  1  0
 33 34  1  0
 34 35  1  0
 35 36  1  0
 36 37  1  0
 37 38  1  0
 38 39  1  0
 32 40  1  0
 32 41  1  0
 41 42  2  0
 41 43  1  0
 43 44  1  0
 44 45  1  0
 45 46  1  0
 46 47  1  0
 46 48  1  0
 44 49  1  0
 49 50  2  0
 49 51  1  0
 51 52  1  0
 52 53  1  0
 53 54  1  0
 52 55  1  0
 55 56  2  0
 55 57  1  0
 57 58  1  0
 58 59  1  0
 59 60  1  0
 60 61  2  0
 61 62  1  0
 62 63  2  0
 63 64  1  0
 64 65  2  0
 58 66  1  0
 66 67  2  0
 66 68  1  0
 68 69  1  0
 69 70  1  0
 70 71  1  0
 71 72  2  0
 72 73  1  0
 73 74  2  0
 74 75  1  0
 75 76  2  0
 69 77  1  0
 77 78  2  0
 77 79  1  0
 79 80  1  0
 80 81  1  0
 80 82  1  0
 82 83  2  0
 82 84  1  0
 84 85  1  0
 85 86  1  0
 86 87  1  0
 87 88  1  0
 88 89  1  0
 89 90  1  0
 90 91  2  3
 90 92  1  0
 85 93  1  0
 93 94  2  0
 93 95  1  0
 95 96  1  0
 96 97  1  0
 97 98  1  0
 98 99  1  0
 99100  1  0
 96101  1  0
 96102  1  6
102103  2  0
102104  1  0
104105  1  0
105106  1  0
106107  1  0
107108  2  0
107109  1  0
105110  1  0
110111  2  0
110112  1  0
112113  1  0
113114  1  0
114115  1  0
115116  1  0
116117  1  0
116118  2  0
113119  1  0
119120  2  0
119121  1  0
121122  1  0
122123  1  0
123124  1  0
123125  1  0
125126  1  0
122127  1  0
127128  2  0
127129  1  0
 65 60  1  0
 76 71  1  0
 39100  2  0
  1130  1  0
  1131  1  0
  2132  1  0
  2133  1  0
  3134  1  0
  3135  1  0
  6136  1  0
  7137  1  6
  8138  1  0
  8139  1  0
 10140  1  0
 10141  1  0
 14142  1  0
 15143  1  6
 16144  1  0
 16145  1  0
 17146  1  0
 17147  1  0
 19148  1  0
 19149  1  0
 23150  1  0
 24151  1  1
 25152  1  0
 25153  1  0
 26154  1  0
 27155  1  0
 27156  1  0
 27157  1  0
 28158  1  0
 28159  1  0
 28160  1  0
 31161  1  0
 33162  1  0
 33163  1  0
 34164  1  0
 34165  1  0
 35166  1  0
 35167  1  0
 36168  1  0
 36169  1  0
 37170  1  0
 37171  1  0
 38172  1  0
 38173  1  0
 39174  1  0
 40175  1  0
 40176  1  0
 40177  1  0
 43178  1  0
 44179  1  1
 45180  1  0
 45181  1  0
 46182  1  0
 47183  1  0
 47184  1  0
 47185  1  0
 48186  1  0
 48187  1  0
 48188  1  0
 51189  1  0
 52190  1  1
 53191  1  0
 53192  1  0
 54193  1  0
 57194  1  0
 58195  1  1
 59196  1  0
 59197  1  0
 61198  1  0
 62199  1  0
 63200  1  0
 64201  1  0
 65202  1  0
 68203  1  0
 69204  1  1
 70205  1  0
 70206  1  0
 72207  1  0
 73208  1  0
 74209  1  0
 75210  1  0
 76211  1  0
 79212  1  0
 80213  1  1
 81214  1  0
 81215  1  0
 81216  1  0
 84217  1  0
 85218  1  1
 86219  1  0
 86220  1  0
 87221  1  0
 87222  1  0
 88223  1  0
 88224  1  0
 89225  1  0
 91226  1  0
 91227  1  0
 92228  1  0
 92229  1  0
 95230  1  0
 97231  1  0
 97232  1  0
 98233  1  0
 98234  1  0
 99235  1  0
 99236  1  0
100237  1  0
101238  1  0
101239  1  0
101240  1  0
104241  1  0
105242  1  1
106243  1  0
106244  1  0
112245  1  0
113246  1  6
114247  1  0
114248  1  0
115249  1  0
115250  1  0
117251  1  0
117252  1  0
121253  1  0
122254  1  1
123255  1  1
124256  1  0
124257  1  0
124258  1  0
125259  1  0
125260  1  0
126261  1  0
126262  1  0
126263  1  0
M  CHG  3  91   1 109  -1 129  -1
M  END
