
     RDKit          2D

353360  0  0  0  0  0  0  0  0999 V2000
  -28.8180    0.0743    0.0000 C   0  0  0  0  0  0  0  0  0  0  0  0
  -30.0726   -0.7479    0.0000 N   0  0  0  0  0  0  0  0  0  0  0  0
  -31.4119   -0.0724    0.0000 C   0  0  0  0  0  0  0  0  0  0  0  0
  -31.4966    1.4252    0.0000 C   0  0  0  0  0  0  0  0  0  0  0  0
  -32.8359    2.1006    0.0000 C   0  0  0  0  0  0  0  0  0  0  0  0
  -34.0905    1.2785    0.0000 C   0  0  0  0  0  0  0  0  0  0  0  0
  -34.0058   -0.2191    0.0000 C   0  0  0  0  0  0  0  0  0  0  0  0
  -32.6665   -0.8946    0.0000 C   0  0  0  0  0  0  0  0  0  0  0  0
  -35.4040   -0.7625    0.0000 C   0  0  0  0  0  0  0  0  0  0  0  0
  -36.3528    0.3993    0.0000 O   0  0  0  0  0  0  0  0  0  0  0  0
  -35.5410    1.6607    0.0000 C   0  0  0  0  0  0  0  0  0  0  0  0
  -36.0844    3.0588    0.0000 O   0  0  0  0  0  0  0  0  0  0  0  0
  -36.8512   -1.1567    0.0000 C   0  0  0  0  0  0  0  0  0  0  0  0
  -37.2335   -2.6072    0.0000 C   0  0  0  0  0  0  0  0  0  0  0  0
  -38.6807   -3.0014    0.0000 C   0  0  0  0  0  0  0  0  0  0  0  0
  -39.7458   -1.9452    0.0000 C   0  0  0  0  0  0  0  0  0  0  0  0
  -39.3636   -0.4947    0.0000 C   0  0  0  0  0  0  0  0  0  0  0  0
  -37.9163   -0.1004    0.0000 C   0  0  0  0  0  0  0  0  0  0  0  0
  -41.1930   -2.3394    0.0000 O   0  0  0  0  0  0  0  0  0  0  0  0
  -36.1684   -3.6634    0.0000 O   0  0  0  0  0  0  0  0  0  0  0  0
  -34.7212   -3.2692    0.0000 C   0  0  0  0  0  0  0  0  0  0  0  0
  -34.3389   -1.8187    0.0000 C   0  0  0  0  0  0  0  0  0  0  0  0
  -33.0700   -2.1014    0.0000 C   0  0  0  0  0  0  0  0  0  0  0  0
  -32.5020   -2.6647    0.0000 C   0  0  0  0  0  0  0  0  0  0  0  0
  -32.7059   -3.4383    0.0000 C   0  0  0  0  0  0  0  0  0  0  0  0
  -33.4777   -3.6486    0.0000 C   0  0  0  0  0  0  0  0  0  0  0  0
  -31.1438   -4.9875    0.0000 O   0  0  0  0  0  0  0  0  0  0  0  0
  -28.9027    1.5719    0.0000 S   0  0  0  0  0  0  0  0  0  0  0  0
  -27.4787   -0.6012    0.0000 N   0  0  0  0  0  0  0  0  0  0  0  0
  -26.2240    0.2210    0.0000 C   0  0  0  0  0  0  0  0  0  0  0  0
  -24.8847   -0.4544    0.0000 C   0  0  0  0  0  0  0  0  0  0  0  0
  -23.6301    0.3677    0.0000 C   0  0  0  0  0  0  0  0  0  0  0  0
  -23.7148    1.8653    0.0000 O   0  0  0  0  0  0  0  0  0  0  0  0
  -22.2908   -0.3077    0.0000 N   0  0  0  0  0  0  0  0  0  0  0  0
  -21.0362    0.5144    0.0000 C   0  0  0  0  0  0  0  0  0  0  0  0
  -20.1384    1.7161    0.0000 C   0  0  0  0  0  0  0  0  0  0  0  0
  -18.6489    1.5395    0.0000 C   0  0  0  0  0  0  0  0  0  0  0  0
  -17.7511    2.7412    0.0000 C   0  0  0  0  0  0  0  0  0  0  0  0
  -16.5361    2.7462    0.0000 O   0  0  0  0  0  0  0  0  0  0  0  0
  -18.3429    4.1195    0.0000 O   0  0  0  0  0  0  0  0  0  0  0  0
  -19.6969   -0.1610    0.0000 C   0  0  0  0  0  0  0  0  0  0  0  0
  -19.6122   -1.6586    0.0000 O   0  0  0  0  0  0  0  0  0  0  0  0
  -18.4423    0.6612    0.0000 N   0  0  0  0  0  0  0  0  0  0  0  0
  -17.1029   -0.0143    0.0000 C   0  0  0  0  0  0  0  0  0  0  0  0
  -16.0754   -1.1071    0.0000 C   0  0  0  0  0  0  0  0  0  0  0  0
  -16.5080   -2.5433    0.0000 C   0  0  0  0  0  0  0  0  0  0  0  0
  -15.4805   -3.6361    0.0000 C   0  0  0  0  0  0  0  0  0  0  0  0
  -15.9131   -5.0724    0.0000 N   0  0  0  0  0  0  0  0  0  0  0  0
  -14.8856   -6.1652    0.0000 C   0  0  0  0  0  0  0  0  0  0  0  0
  -15.3182   -7.6014    0.0000 N   0  0  0  0  0  0  0  0  0  0  0  0
  -13.4254   -5.8217    0.0000 N   0  0  0  0  0  0  0  0  0  0  0  0
  -15.8483    0.8079    0.0000 C   0  0  0  0  0  0  0  0  0  0  0  0
  -15.7686    2.0203    0.0000 O   0  0  0  0  0  0  0  0  0  0  0  0
  -14.5090    0.1324    0.0000 N   0  0  0  0  0  0  0  0  0  0  0  0
  -13.2544    0.9546    0.0000 C   0  0  0  0  0  0  0  0  0  0  0  0
  -12.3566    2.1563    0.0000 C   0  0  0  0  0  0  0  0  0  0  0  0
  -10.8671    1.9796    0.0000 C   0  0  0  0  0  0  0  0  0  0  0  0
   -9.9693    3.1813    0.0000 C   0  0  0  0  0  0  0  0  0  0  0  0
   -9.5278    1.3042    0.0000 C   0  0  0  0  0  0  0  0  0  0  0  0
  -11.9151    0.2791    0.0000 C   0  0  0  0  0  0  0  0  0  0  0  0
  -11.8304   -1.2185    0.0000 O   0  0  0  0  0  0  0  0  0  0  0  0
  -10.6605    1.1013    0.0000 N   0  0  0  0  0  0  0  0  0  0  0  0
   -9.3211    0.4259    0.0000 C   0  0  0  0  0  0  0  0  0  0  0  0
   -8.2936   -0.6669    0.0000 C   0  0  0  0  0  0  0  0  0  0  0  0
   -8.7262   -2.1032    0.0000 C   0  0  0  0  0  0  0  0  0  0  0  0
   -7.6987   -3.1960    0.0000 C   0  0  0  0  0  0  0  0  0  0  0  0
   -8.1313   -4.6322    0.0000 N   0  0  0  0  0  0  0  0  0  0  0  0
   -7.1038   -5.7250    0.0000 C   0  0  0  0  0  0  0  0  0  0  0  0
   -7.5364   -7.1613    0.0000 N   0  0  0  0  0  0  0  0  0  0  0  0
   -5.6436   -5.3815    0.0000 N   0  0  0  0  0  0  0  0  0  0  0  0
   -8.0665    1.2480    0.0000 C   0  0  0  0  0  0  0  0  0  0  0  0
   -7.9681    2.7448    0.0000 O   0  0  0  0  0  0  0  0  0  0  0  0
   -6.7272    0.5726    0.0000 N   0  0  0  0  0  0  0  0  0  0  0  0
   -5.4726    1.3947    0.0000 C   0  0  0  0  0  0  0  0  0  0  0  0
   -4.5749    2.5964    0.0000 C   0  0  0  0  0  0  0  0  0  0  0  0
   -3.0853    2.4198    0.0000 C   0  0  0  0  0  0  0  0  0  0  0  0
   -2.1875    3.6215    0.0000 C   0  0  0  0  0  0  0  0  0  0  0  0
   -0.6980    3.4448    0.0000 N   0  0  0  0  0  0  0  0  0  0  0  0
    0.1998    4.6465    0.0000 C   0  0  0  0  0  0  0  0  0  0  0  0
    1.6893    4.4699    0.0000 N   0  0  0  0  0  0  0  0  0  0  0  0
   -0.3920    6.0248    0.0000 N   0  0  0  0  0  0  0  0  0  0  0  0
   -4.1333    0.7193    0.0000 C   0  0  0  0  0  0  0  0  0  0  0  0
   -4.0486   -0.7783    0.0000 O   0  0  0  0  0  0  0  0  0  0  0  0
   -2.8787    1.5414    0.0000 N   0  0  0  0  0  0  0  0  0  0  0  0
   -1.5394    0.8660    0.0000 C   0  0  0  0  0  0  0  0  0  0  0  0
   -0.5118   -0.2268    0.0000 C   0  0  0  0  0  0  0  0  0  0  0  0
   -0.9444   -1.6630    0.0000 C   0  0  0  0  0  0  0  0  0  0  0  0
    0.0831   -2.7558    0.0000 C   0  0  0  0  0  0  0  0  0  0  0  0
   -0.3495   -4.1921    0.0000 N   0  0  0  0  0  0  0  0  0  0  0  0
    0.6780   -5.2849    0.0000 C   0  0  0  0  0  0  0  0  0  0  0  0
    0.2454   -6.7211    0.0000 N   0  0  0  0  0  0  0  0  0  0  0  0
    2.1382   -4.9414    0.0000 N   0  0  0  0  0  0  0  0  0  0  0  0
   -0.2847    1.6882    0.0000 C   0  0  0  0  0  0  0  0  0  0  0  0
   -0.0805    2.7624    0.0000 O   0  0  0  0  0  0  0  0  0  0  0  0
    1.0546    1.0127    0.0000 N   0  0  0  0  0  0  0  0  0  0  0  0
    2.3092    1.8349    0.0000 C   0  0  0  0  0  0  0  0  0  0  0  0
    3.2069    3.0366    0.0000 C   0  0  0  0  0  0  0  0  0  0  0  0
    4.7069    3.0428    0.0000 C   0  0  0  0  0  0  0  0  0  0  0  0
    3.6396    4.4728    0.0000 C   0  0  0  0  0  0  0  0  0  0  0  0
    5.0469    4.9917    0.0000 C   0  0  0  0  0  0  0  0  0  0  0  0
    3.6485    1.1594    0.0000 C   0  0  0  0  0  0  0  0  0  0  0  0
    3.5500   -0.3373    0.0000 O   0  0  0  0  0  0  0  0  0  0  0  0
    4.9031    1.9816    0.0000 N   0  0  0  0  0  0  0  0  0  0  0  0
    6.2424    1.3061    0.0000 C   0  0  0  0  0  0  0  0  0  0  0  0
    6.6222   -0.1450    0.0000 C   0  0  0  0  0  0  0  0  0  0  0  0
    7.4128   -1.4197    0.0000 C   0  0  0  0  0  0  0  0  0  0  0  0
    8.5441   -2.4047    0.0000 C   0  0  0  0  0  0  0  0  0  0  0  0
    9.9154   -3.0126    0.0000 C   0  0  0  0  0  0  0  0  0  0  0  0
    4.9697    0.5124    0.0000 C   0  0  0  0  0  0  0  0  0  0  0  0
    6.3073    2.8047    0.0000 C   0  0  0  0  0  0  0  0  0  0  0  0
    5.5493    3.0517    0.0000 O   0  0  0  0  0  0  0  0  0  0  0  0
    6.8109    4.2177    0.0000 N   0  0  0  0  0  0  0  0  0  0  0  0
    7.7087    5.4193    0.0000 C   0  0  0  0  0  0  0  0  0  0  0  0
    7.4017    6.8876    0.0000 C   0  0  0  0  0  0  0  0  0  0  0  0
    8.5198    7.8876    0.0000 C   0  0  0  0  0  0  0  0  0  0  0  0
    8.2128    9.3558    0.0000 C   0  0  0  0  0  0  0  0  0  0  0  0
    9.8341    8.6104    0.0000 C   0  0  0  0  0  0  0  0  0  0  0  0
    8.9208    6.3030    0.0000 C   0  0  0  0  0  0  0  0  0  0  0  0
    8.5701    7.7614    0.0000 O   0  0  0  0  0  0  0  0  0  0  0  0
   10.3394    6.7902    0.0000 N   0  0  0  0  0  0  0  0  0  0  0  0
   11.8387    6.8375    0.0000 C   0  0  0  0  0  0  0  0  0  0  0  0
   12.7952    7.9929    0.0000 C   0  0  0  0  0  0  0  0  0  0  0  0
   12.2729    9.3991    0.0000 S   0  0  0  0  0  0  0  0  0  0  0  0
   13.2853    6.4408    0.0000 C   0  0  0  0  0  0  0  0  0  0  0  0
   13.8931    7.8122    0.0000 O   0  0  0  0  0  0  0  0  0  0  0  0
   14.5507    5.6354    0.0000 N   0  0  0  0  0  0  0  0  0  0  0  0
   15.5225    4.4928    0.0000 C   0  0  0  0  0  0  0  0  0  0  0  0
   17.0222    4.4653    0.0000 C   0  0  0  0  0  0  0  0  0  0  0  0
   17.7959    5.7504    0.0000 C   0  0  0  0  0  0  0  0  0  0  0  0
   19.2956    5.7230    0.0000 C   0  0  0  0  0  0  0  0  0  0  0  0
   20.0693    7.0081    0.0000 N   0  0  0  0  0  0  0  0  0  0  0  0
   21.5690    6.9806    0.0000 C   0  0  0  0  0  0  0  0  0  0  0  0
   22.3427    8.2657    0.0000 N   0  0  0  0  0  0  0  0  0  0  0  0
   22.2951    5.6681    0.0000 N   0  0  0  0  0  0  0  0  0  0  0  0
   16.1143    3.1144    0.0000 C   0  0  0  0  0  0  0  0  0  0  0  0
   17.5654    3.4942    0.0000 O   0  0  0  0  0  0  0  0  0  0  0  0
   16.2736    1.6229    0.0000 N   0  0  0  0  0  0  0  0  0  0  0  0
   15.9861    0.1507    0.0000 C   0  0  0  0  0  0  0  0  0  0  0  0
   15.2775   -1.1714    0.0000 C   0  0  0  0  0  0  0  0  0  0  0  0
   14.2106   -2.2258    0.0000 C   0  0  0  0  0  0  0  0  0  0  0  0
   12.8804   -2.9190    0.0000 C   0  0  0  0  0  0  0  0  0  0  0  0
   11.4050   -3.1892    0.0000 C   0  0  0  0  0  0  0  0  0  0  0  0
   17.4462    0.4942    0.0000 C   0  0  0  0  0  0  0  0  0  0  0  0
   16.8997   -1.0390    0.0000 C   0  0  0  0  0  0  0  0  0  0  0  0
   16.6787   -2.5226    0.0000 O   0  0  0  0  0  0  0  0  0  0  0  0
   18.3868   -0.8426    0.0000 N   0  0  0  0  0  0  0  0  0  0  0  0
   19.3004   -2.0322    0.0000 C   0  0  0  0  0  0  0  0  0  0  0  0
   19.7521   -3.4626    0.0000 C   0  0  0  0  0  0  0  0  0  0  0  0
   18.7391   -4.5689    0.0000 C   0  0  0  0  0  0  0  0  0  0  0  0
   19.0388   -6.0387    0.0000 C   0  0  0  0  0  0  0  0  0  0  0  0
   17.7335   -6.7779    0.0000 N   0  0  0  0  0  0  0  0  0  0  0  0
   16.6272   -5.7649    0.0000 C   0  0  0  0  0  0  0  0  0  0  0  0
   17.2487   -4.3997    0.0000 N   0  0  0  0  0  0  0  0  0  0  0  0
   20.7875   -1.8358    0.0000 C   0  0  0  0  0  0  0  0  0  0  0  0
   21.3610   -0.4498    0.0000 O   0  0  0  0  0  0  0  0  0  0  0  0
   21.7011   -3.0255    0.0000 N   0  0  0  0  0  0  0  0  0  0  0  0
   23.1882   -2.8291    0.0000 C   0  0  0  0  0  0  0  0  0  0  0  0
   24.5185   -2.1360    0.0000 C   0  0  0  0  0  0  0  0  0  0  0  0
   25.7839   -2.9414    0.0000 C   0  0  0  0  0  0  0  0  0  0  0  0
   27.1793   -2.3911    0.0000 C   0  0  0  0  0  0  0  0  0  0  0  0
   28.1339   -3.5482    0.0000 N   0  0  0  0  0  0  0  0  0  0  0  0
   27.3284   -4.8136    0.0000 C   0  0  0  0  0  0  0  0  0  0  0  0
   25.8760   -4.4386    0.0000 N   0  0  0  0  0  0  0  0  0  0  0  0
   24.1018   -4.0188    0.0000 C   0  0  0  0  0  0  0  0  0  0  0  0
   23.5284   -5.4048    0.0000 O   0  0  0  0  0  0  0  0  0  0  0  0
   25.5889   -3.8224    0.0000 N   0  0  0  0  0  0  0  0  0  0  0  0
   26.5025   -5.0121    0.0000 C   0  0  0  0  0  0  0  0  0  0  0  0
   26.9542   -6.4425    0.0000 C   0  0  0  0  0  0  0  0  0  0  0  0
   25.9412   -7.5488    0.0000 O   0  0  0  0  0  0  0  0  0  0  0  0
   27.9896   -4.8157    0.0000 C   0  0  0  0  0  0  0  0  0  0  0  0
   28.8814   -3.6096    0.0000 O   0  0  0  0  0  0  0  0  0  0  0  0
   28.9033   -6.0053    0.0000 N   0  0  0  0  0  0  0  0  0  0  0  0
   30.3903   -5.8090    0.0000 C   0  0  0  0  0  0  0  0  0  0  0  0
   31.7206   -5.1158    0.0000 C   0  0  0  0  0  0  0  0  0  0  0  0
   32.7335   -4.0095    0.0000 O   0  0  0  0  0  0  0  0  0  0  0  0
   32.9860   -5.9212    0.0000 C   0  0  0  0  0  0  0  0  0  0  0  0
   31.3040   -6.9986    0.0000 C   0  0  0  0  0  0  0  0  0  0  0  0
   32.8039   -6.9850    0.0000 O   0  0  0  0  0  0  0  0  0  0  0  0
   30.7305   -8.3847    0.0000 O   0  0  0  0  0  0  0  0  0  0  0  0
  -29.8060   -2.2240    0.0000 H   0  0  0  0  0  0  0  0  0  0  0  0
  -30.2420    2.2473    0.0000 H   0  0  0  0  0  0  0  0  0  0  0  0
  -32.9206    3.5982    0.0000 H   0  0  0  0  0  0  0  0  0  0  0  0
  -32.2219   -2.3272    0.0000 H   0  0  0  0  0  0  0  0  0  0  0  0
  -39.0630   -4.4519    0.0000 H   0  0  0  0  0  0  0  0  0  0  0  0
  -40.4286    0.5616    0.0000 H   0  0  0  0  0  0  0  0  0  0  0  0
  -37.5341    1.3500    0.0000 H   0  0  0  0  0  0  0  0  0  0  0  0
  -42.2581   -1.2831    0.0000 H   0  0  0  0  0  0  0  0  0  0  0  0
  -32.5094    0.0260    0.0000 H   0  0  0  0  0  0  0  0  0  0  0  0
  -30.3421   -2.2659    0.0000 H   0  0  0  0  0  0  0  0  0  0  0  0
  -34.0383   -5.7760    0.0000 H   0  0  0  0  0  0  0  0  0  0  0  0
  -31.5260   -6.4380    0.0000 H   0  0  0  0  0  0  0  0  0  0  0  0
  -27.3940   -2.0988    0.0000 H   0  0  0  0  0  0  0  0  0  0  0  0
  -25.3263    1.4227    0.0000 H   0  0  0  0  0  0  0  0  0  0  0  0
  -27.2516    1.3138    0.0000 H   0  0  0  0  0  0  0  0  0  0  0  0
  -23.8572   -1.5472    0.0000 H   0  0  0  0  0  0  0  0  0  0  0  0
  -25.7825   -1.6561    0.0000 H   0  0  0  0  0  0  0  0  0  0  0  0
  -22.2061   -1.8053    0.0000 H   0  0  0  0  0  0  0  0  0  0  0  0
  -22.0637    1.6072    0.0000 H   0  0  0  0  0  0  0  0  0  0  0  0
  -19.7058    3.1524    0.0000 H   0  0  0  0  0  0  0  0  0  0  0  0
  -21.4778    2.3916    0.0000 H   0  0  0  0  0  0  0  0  0  0  0  0
  -17.3096    0.8640    0.0000 H   0  0  0  0  0  0  0  0  0  0  0  0
  -18.3564    0.0683    0.0000 H   0  0  0  0  0  0  0  0  0  0  0  0
  -18.1621    2.1348    0.0000 H   0  0  0  0  0  0  0  0  0  0  0  0
  -18.1405   -1.0976    0.0000 H   0  0  0  0  0  0  0  0  0  0  0  0
  -14.7361   -1.7825    0.0000 H   0  0  0  0  0  0  0  0  0  0  0  0
  -14.9136   -0.1583    0.0000 H   0  0  0  0  0  0  0  0  0  0  0  0
  -17.4058   -3.7450    0.0000 H   0  0  0  0  0  0  0  0  0  0  0  0
  -17.9197   -2.0362    0.0000 H   0  0  0  0  0  0  0  0  0  0  0  0
  -14.1412   -4.3116    0.0000 H   0  0  0  0  0  0  0  0  0  0  0  0
  -14.4429   -2.5528    0.0000 H   0  0  0  0  0  0  0  0  0  0  0  0
  -17.3732   -5.4159    0.0000 H   0  0  0  0  0  0  0  0  0  0  0  0
  -14.2907   -8.6942    0.0000 H   0  0  0  0  0  0  0  0  0  0  0  0
  -16.7783   -7.9449    0.0000 H   0  0  0  0  0  0  0  0  0  0  0  0
  -12.3979   -6.9145    0.0000 H   0  0  0  0  0  0  0  0  0  0  0  0
  -12.9928   -4.3854    0.0000 H   0  0  0  0  0  0  0  0  0  0  0  0
  -14.2424   -1.3437    0.0000 H   0  0  0  0  0  0  0  0  0  0  0  0
  -14.2819    2.0474    0.0000 H   0  0  0  0  0  0  0  0  0  0  0  0
  -12.1023    3.6346    0.0000 H   0  0  0  0  0  0  0  0  0  0  0  0
  -13.6960    2.8317    0.0000 H   0  0  0  0  0  0  0  0  0  0  0  0
  -10.5746    0.5084    0.0000 H   0  0  0  0  0  0  0  0  0  0  0  0
   -8.4813    3.3704    0.0000 H   0  0  0  0  0  0  0  0  0  0  0  0
   -9.5367    4.6176    0.0000 H   0  0  0  0  0  0  0  0  0  0  0  0
  -11.2163    4.0150    0.0000 H   0  0  0  0  0  0  0  0  0  0  0  0
   -9.0832   -0.1284    0.0000 H   0  0  0  0  0  0  0  0  0  0  0  0
   -8.0739    1.6732    0.0000 H   0  0  0  0  0  0  0  0  0  0  0  0
   -8.9233    2.6770    0.0000 H   0  0  0  0  0  0  0  0  0  0  0  0
  -10.3803    2.5749    0.0000 H   0  0  0  0  0  0  0  0  0  0  0  0
  -10.3587   -0.6574    0.0000 H   0  0  0  0  0  0  0  0  0  0  0  0
   -6.9543   -1.3424    0.0000 H   0  0  0  0  0  0  0  0  0  0  0  0
   -7.0248    0.1331    0.0000 H   0  0  0  0  0  0  0  0  0  0  0  0
   -9.6240   -3.3049    0.0000 H   0  0  0  0  0  0  0  0  0  0  0  0
  -10.1379   -1.5960    0.0000 H   0  0  0  0  0  0  0  0  0  0  0  0
   -6.3594   -3.8714    0.0000 H   0  0  0  0  0  0  0  0  0  0  0  0
   -6.6612   -2.1127    0.0000 H   0  0  0  0  0  0  0  0  0  0  0  0
   -9.5915   -4.9757    0.0000 H   0  0  0  0  0  0  0  0  0  0  0  0
   -6.5089   -8.2541    0.0000 H   0  0  0  0  0  0  0  0  0  0  0  0
   -8.9965   -7.5048    0.0000 H   0  0  0  0  0  0  0  0  0  0  0  0
   -4.6161   -6.4743    0.0000 H   0  0  0  0  0  0  0  0  0  0  0  0
   -5.2110   -3.9453    0.0000 H   0  0  0  0  0  0  0  0  0  0  0  0
   -6.4606   -0.9035    0.0000 H   0  0  0  0  0  0  0  0  0  0  0  0
   -6.5001    2.4875    0.0000 H   0  0  0  0  0  0  0  0  0  0  0  0
   -4.3205    4.0747    0.0000 H   0  0  0  0  0  0  0  0  0  0  0  0
   -5.9142    3.2719    0.0000 H   0  0  0  0  0  0  0  0  0  0  0  0
   -1.7460    1.7443    0.0000 H   0  0  0  0  0  0  0  0  0  0  0  0
   -2.7928    0.9486    0.0000 H   0  0  0  0  0  0  0  0  0  0  0  0
   -1.7549    5.0577    0.0000 H   0  0  0  0  0  0  0  0  0  0  0  0
   -3.4345    4.4551    0.0000 H   0  0  0  0  0  0  0  0  0  0  0  0
    0.2098    2.2507    0.0000 H   0  0  0  0  0  0  0  0  0  0  0  0
    2.5871    5.6715    0.0000 H   0  0  0  0  0  0  0  0  0  0  0  0
    2.1305    3.0244    0.0000 H   0  0  0  0  0  0  0  0  0  0  0  0
    0.5057    7.2265    0.0000 H   0  0  0  0  0  0  0  0  0  0  0  0
   -1.8816    6.2015    0.0000 H   0  0  0  0  0  0  0  0  0  0  0  0
   -2.5985    3.0150    0.0000 H   0  0  0  0  0  0  0  0  0  0  0  0
   -2.5769   -0.2173    0.0000 H   0  0  0  0  0  0  0  0  0  0  0  0
    0.8275   -0.9022    0.0000 H   0  0  0  0  0  0  0  0  0  0  0  0
    0.6500    0.7220    0.0000 H   0  0  0  0  0  0  0  0  0  0  0  0
   -1.8422   -2.8647    0.0000 H   0  0  0  0  0  0  0  0  0  0  0  0
   -2.3561   -1.1559    0.0000 H   0  0  0  0  0  0  0  0  0  0  0  0
    1.4224   -3.4313    0.0000 H   0  0  0  0  0  0  0  0  0  0  0  0
    1.1206   -1.6725    0.0000 H   0  0  0  0  0  0  0  0  0  0  0  0
   -1.8097   -4.5356    0.0000 H   0  0  0  0  0  0  0  0  0  0  0  0
    1.2729   -7.8139    0.0000 H   0  0  0  0  0  0  0  0  0  0  0  0
   -1.2147   -7.0646    0.0000 H   0  0  0  0  0  0  0  0  0  0  0  0
    3.1657   -6.0342    0.0000 H   0  0  0  0  0  0  0  0  0  0  0  0
    2.5708   -3.5051    0.0000 H   0  0  0  0  0  0  0  0  0  0  0  0
    1.3212   -0.4634    0.0000 H   0  0  0  0  0  0  0  0  0  0  0  0
    1.2817    2.9277    0.0000 H   0  0  0  0  0  0  0  0  0  0  0  0
    1.7440    3.3679    0.0000 H   0  0  0  0  0  0  0  0  0  0  0  0
    5.6166    4.0617    0.0000 H   0  0  0  0  0  0  0  0  0  0  0  0
    6.2040    2.5315    0.0000 H   0  0  0  0  0  0  0  0  0  0  0  0
    4.8737    1.3724    0.0000 H   0  0  0  0  0  0  0  0  0  0  0  0
    3.5548    5.9704    0.0000 H   0  0  0  0  0  0  0  0  0  0  0  0
    2.1826    4.8297    0.0000 H   0  0  0  0  0  0  0  0  0  0  0  0
    5.2128    6.3325    0.0000 H   0  0  0  0  0  0  0  0  0  0  0  0
    6.5877    5.0053    0.0000 H   0  0  0  0  0  0  0  0  0  0  0  0
    5.1844    3.3187    0.0000 H   0  0  0  0  0  0  0  0  0  0  0  0
    4.6365    3.4577    0.0000 H   0  0  0  0  0  0  0  0  0  0  0  0
    5.1238   -0.0765    0.0000 H   0  0  0  0  0  0  0  0  0  0  0  0
    5.7855   -1.3899    0.0000 H   0  0  0  0  0  0  0  0  0  0  0  0
    6.0175   -1.9701    0.0000 H   0  0  0  0  0  0  0  0  0  0  0  0
    6.8084   -2.7925    0.0000 H   0  0  0  0  0  0  0  0  0  0  0  0
    7.2674   -3.1922    0.0000 H   0  0  0  0  0  0  0  0  0  0  0  0
    8.5540   -3.9047    0.0000 H   0  0  0  0  0  0  0  0  0  0  0  0
    9.5187   -4.4592    0.0000 H   0  0  0  0  0  0  0  0  0  0  0  0
    4.9046   -1.1523    0.0000 H   0  0  0  0  0  0  0  0  0  0  0  0
    3.7446   -0.2792    0.0000 H   0  0  0  0  0  0  0  0  0  0  0  0
    3.9740    1.3762    0.0000 H   0  0  0  0  0  0  0  0  0  0  0  0
    5.6996    5.2251    0.0000 H   0  0  0  0  0  0  0  0  0  0  0  0
    6.2441    5.7434    0.0000 H   0  0  0  0  0  0  0  0  0  0  0  0
    6.4616    8.0564    0.0000 H   0  0  0  0  0  0  0  0  0  0  0  0
    5.9156    6.6839    0.0000 H   0  0  0  0  0  0  0  0  0  0  0  0
    9.5954    6.8420    0.0000 H   0  0  0  0  0  0  0  0  0  0  0  0
    9.2006   10.4846    0.0000 H   0  0  0  0  0  0  0  0  0  0  0  0
    7.4222   10.6305    0.0000 H   0  0  0  0  0  0  0  0  0  0  0  0
    6.7626    8.9725    0.0000 H   0  0  0  0  0  0  0  0  0  0  0  0
   10.3055    9.8924    0.0000 H   0  0  0  0  0  0  0  0  0  0  0  0
   11.4143    8.6853    0.0000 H   0  0  0  0  0  0  0  0  0  0  0  0
   10.5655    7.0945    0.0000 H   0  0  0  0  0  0  0  0  0  0  0  0
   10.2510    8.2876    0.0000 H   0  0  0  0  0  0  0  0  0  0  0  0
   11.3480    8.2550    0.0000 H   0  0  0  0  0  0  0  0  0  0  0  0
   14.0893    8.7516    0.0000 H   0  0  0  0  0  0  0  0  0  0  0  0
   14.0146    7.1194    0.0000 H   0  0  0  0  0  0  0  0  0  0  0  0
   13.2294   10.5545    0.0000 H   0  0  0  0  0  0  0  0  0  0  0  0
   15.5358    6.7666    0.0000 H   0  0  0  0  0  0  0  0  0  0  0  0
   15.9943    5.9166    0.0000 H   0  0  0  0  0  0  0  0  0  0  0  0
   18.3460    3.7599    0.0000 H   0  0  0  0  0  0  0  0  0  0  0  0
   17.0996    2.9673    0.0000 H   0  0  0  0  0  0  0  0  0  0  0  0
   18.0833    7.2226    0.0000 H   0  0  0  0  0  0  0  0  0  0  0  0
   16.4721    6.4558    0.0000 H   0  0  0  0  0  0  0  0  0  0  0  0
   20.6956    5.1842    0.0000 H   0  0  0  0  0  0  0  0  0  0  0  0
   19.1898    4.2267    0.0000 H   0  0  0  0  0  0  0  0  0  0  0  0
   19.3432    8.3206    0.0000 H   0  0  0  0  0  0  0  0  0  0  0  0
   23.8424    8.2383    0.0000 H   0  0  0  0  0  0  0  0  0  0  0  0
   21.6166    9.5782    0.0000 H   0  0  0  0  0  0  0  0  0  0  0  0
   23.7949    5.6406    0.0000 H   0  0  0  0  0  0  0  0  0  0  0  0
   21.5215    4.3830    0.0000 H   0  0  0  0  0  0  0  0  0  0  0  0
   17.7722    1.5581    0.0000 H   0  0  0  0  0  0  0  0  0  0  0  0
   15.7998   -2.5775    0.0000 H   0  0  0  0  0  0  0  0  0  0  0  0
   16.7048   -1.6326    0.0000 H   0  0  0  0  0  0  0  0  0  0  0  0
   14.4773   -3.7019    0.0000 H   0  0  0  0  0  0  0  0  0  0  0  0
   15.4386   -3.0873    0.0000 H   0  0  0  0  0  0  0  0  0  0  0  0
   12.5199   -4.3750    0.0000 H   0  0  0  0  0  0  0  0  0  0  0  0
   13.9375   -3.9832    0.0000 H   0  0  0  0  0  0  0  0  0  0  0  0
   11.4523   -4.6885    0.0000 H   0  0  0  0  0  0  0  0  0  0  0  0
   18.7077   -0.3175    0.0000 H   0  0  0  0  0  0  0  0  0  0  0  0
   18.5913    1.4632    0.0000 H   0  0  0  0  0  0  0  0  0  0  0  0
   17.2055    1.9747    0.0000 H   0  0  0  0  0  0  0  0  0  0  0  0
   19.1249    0.4632    0.0000 H   0  0  0  0  0  0  0  0  0  0  0  0
   17.9702   -2.7254    0.0000 H   0  0  0  0  0  0  0  0  0  0  0  0
   20.5138   -4.7548    0.0000 H   0  0  0  0  0  0  0  0  0  0  0  0
   21.2105   -3.1120    0.0000 H   0  0  0  0  0  0  0  0  0  0  0  0
   20.4039   -6.6602    0.0000 H   0  0  0  0  0  0  0  0  0  0  0  0
   17.5643   -8.2683    0.0000 H   0  0  0  0  0  0  0  0  0  0  0  0
   15.1574   -6.0646    0.0000 H   0  0  0  0  0  0  0  0  0  0  0  0
   21.3009   -4.4711    0.0000 H   0  0  0  0  0  0  0  0  0  0  0  0
   22.7366   -1.3987    0.0000 H   0  0  0  0  0  0  0  0  0  0  0  0
   25.5314   -1.0296    0.0000 H   0  0  0  0  0  0  0  0  0  0  0  0
   23.6048   -0.9463    0.0000 H   0  0  0  0  0  0  0  0  0  0  0  0
   27.5543   -0.9387    0.0000 H   0  0  0  0  0  0  0  0  0  0  0  0
   29.6310   -3.4560    0.0000 H   0  0  0  0  0  0  0  0  0  0  0  0
   28.0447   -6.1315    0.0000 H   0  0  0  0  0  0  0  0  0  0  0  0
   26.4807   -2.6163    0.0000 H   0  0  0  0  0  0  0  0  0  0  0  0
   25.1723   -5.7052    0.0000 H   0  0  0  0  0  0  0  0  0  0  0  0
   27.7160   -7.7346    0.0000 H   0  0  0  0  0  0  0  0  0  0  0  0
   28.4445   -6.2722    0.0000 H   0  0  0  0  0  0  0  0  0  0  0  0
   26.3929   -8.9792    0.0000 H   0  0  0  0  0  0  0  0  0  0  0  0
   28.5030   -7.4510    0.0000 H   0  0  0  0  0  0  0  0  0  0  0  0
   29.9387   -4.3786    0.0000 H   0  0  0  0  0  0  0  0  0  0  0  0
   30.8070   -3.9261    0.0000 H   0  0  0  0  0  0  0  0  0  0  0  0
   34.2267   -4.1526    0.0000 H   0  0  0  0  0  0  0  0  0  0  0  0
   34.3908   -5.3954    0.0000 H   0  0  0  0  0  0  0  0  0  0  0  0
   33.8996   -7.1109    0.0000 H   0  0  0  0  0  0  0  0  0  0  0  0
   32.4369   -7.3171    0.0000 H   0  0  0  0  0  0  0  0  0  0  0  0
  1  2  1  0
  2  3  1  0
  3  4  2  0
  4  5  1  0
  5  6  2  0
  6  7  1  0
  7  8  2  0
  7  9  1  0
  9 10  1  0
 10 11  1  0
 11 12  2  0
  9 13  1  0
 13 14  1  0
 14 15  2  0
 15 16  1  0
 16 17  2  0
 17 18  1  0
 16 19  1  0
 14 20  1  0
 20 21  1  0
 21 22  2  0
 22 23  1  0
 23 24  2  0
 24 25  1  0
 25 26  2  0
 25 27  1  0
  1 28  2  0
  1 29  1  0
 29 30  1  0
 30 31  1  0
 31 32  1  0
 32 33  2  0
 32 34  1  0
 34 35  1  0
 35 36  1  0
 36 37  1  0
 37 38  1  0
 38 39  2  0
 38 40  1  0
 35 41  1  0
 41 42  2  0
 41 43  1  0
 43 44  1  0
 44 45  1  0
 45 46  1  0
 46 47  1  0
 47 48  1  0
 48 49  1  0
 49 50  2  3
 49 51  1  0
 44 52  1  0
 52 53  2  0
 52 54  1  0
 54 55  1  0
 55 56  1  0
 56 57  1  0
 57 58  1  0
 57 59  1  0
 55 60  1  0
 60 61  2  0
 60 62  1  0
 62 63  1  0
 63 64  1  0
 64 65  1  0
 65 66  1  0
 66 67  1  0
 67 68  1  0
 68 69  2  3
 68 70  1  0
 63 71  1  0
 71 72  2  0
 71 73  1  0
 73 74  1  0
 74 75  1  0
 75 76  1  0
 76 77  1  0
 77 78  1  0
 78 79  1  0
 79 80  2  3
 79 81  1  0
 74 82  1  0
 82 83  2  0
 82 84  1  0
 84 85  1  0
 85 86  1  0
 86 87  1  0
 87 88  1  0
 88 89  1  0
 89 90  1  0
 90 91  2  3
 90 92  1  0
 85 93  1  0
 93 94  2  0
 93 95  1  0
 95 96  1  0
 96 97  1  0
 97 98  1  0
 97 99  1  0
 99100  1  0
 96101  1  0
101102  2  0
101103  1  0
104103  1  6
104105  1  0
105106  1  0
106107  1  0
107108  1  0
104109  1  0
104110  1  0
110111  2  0
110112  1  0
112113  1  0
113114  1  0
114115  1  0
115116  1  0
115117  1  0
113118  1  0
118119  2  0
118120  1  0
120121  1  0
121122  1  0
122123  1  0
121124  1  0
124125  2  0
124126  1  0
126127  1  0
127128  1  0
128129  1  0
129130  1  0
130131  1  0
131132  1  0
132133  2  3
132134  1  0
127135  1  0
135136  2  0
135137  1  0
137138  1  0
138139  1  0
139140  1  0
140141  1  0
141142  1  0
138143  1  0
138144  1  6
144145  2  0
144146  1  0
146147  1  0
147148  1  0
148149  1  0
149150  2  0
150151  1  0
151152  1  0
152153  2  0
147154  1  0
154155  2  0
154156  1  0
156157  1  0
157158  1  0
158159  1  0
159160  2  0
160161  1  0
161162  1  0
162163  2  0
157164  1  0
164165  2  0
164166  1  0
166167  1  0
167168  1  0
168169  1  0
167170  1  0
170171  2  0
170172  1  0
172173  1  0
173174  1  0
174175  1  0
174176  1  0
173177  1  0
177178  2  0
177179  1  0
  8  3  1  0
153149  1  0
163159  1  0
 11  6  1  0
108142  2  0
 18 13  2  0
 22  9  1  0
 26 21  1  0
  2180  1  0
  4181  1  0
  5182  1  0
  8183  1  0
 15184  1  0
 17185  1  0
 18186  1  0
 19187  1  0
 23188  1  0
 24189  1  0
 26190  1  0
 27191  1  0
 29192  1  0
 30193  1  0
 30194  1  0
 31195  1  0
 31196  1  0
 34197  1  0
 35198  1  1
 36199  1  0
 36200  1  0
 37201  1  0
 37202  1  0
 43203  1  0
 44204  1  6
 45205  1  0
 45206  1  0
 46207  1  0
 46208  1  0
 47209  1  0
 47210  1  0
 48211  1  0
 50212  1  0
 50213  1  0
 51214  1  0
 51215  1  0
 54216  1  0
 55217  1  1
 56218  1  0
 56219  1  0
 57220  1  0
 58221  1  0
 58222  1  0
 58223  1  0
 59224  1  0
 59225  1  0
 59226  1  0
 62227  1  0
 63228  1  6
 64229  1  0
 64230  1  0
 65231  1  0
 65232  1  0
 66233  1  0
 66234  1  0
 67235  1  0
 69236  1  0
 69237  1  0
 70238  1  0
 70239  1  0
 73240  1  0
 74241  1  1
 75242  1  0
 75243  1  0
 76244  1  0
 76245  1  0
 77246  1  0
 77247  1  0
 78248  1  0
 80249  1  0
 80250  1  0
 81251  1  0
 81252  1  0
 84253  1  0
 85254  1  6
 86255  1  0
 86256  1  0
 87257  1  0
 87258  1  0
 88259  1  0
 88260  1  0
 89261  1  0
 91262  1  0
 91263  1  0
 92264  1  0
 92265  1  0
 95266  1  0
 96267  1  1
 97268  1  1
 98269  1  0
 98270  1  0
 98271  1  0
 99272  1  0
 99273  1  0
100274  1  0
100275  1  0
100276  1  0
103277  1  0
105278  1  0
105279  1  0
106280  1  0
106281  1  0
107282  1  0
107283  1  0
108284  1  0
109285  1  0
109286  1  0
109287  1  0
112288  1  0
113289  1  1
114290  1  0
114291  1  0
115292  1  0
116293  1  0
116294  1  0
116295  1  0
117296  1  0
117297  1  0
117298  1  0
120299  1  0
121300  1  1
122301  1  0
122302  1  0
123303  1  0
126304  1  0
127305  1  1
128306  1  0
128307  1  0
129308  1  0
129309  1  0
130310  1  0
130311  1  0
131312  1  0
133313  1  0
133314  1  0
134315  1  0
134316  1  0
137317  1  0
139318  1  0
139319  1  0
140320  1  0
140321  1  0
141322  1  0
141323  1  0
142324  1  0
143325  1  0
143326  1  0
143327  1  0
146328  1  0
147329  1  6
148330  1  0
148331  1  0
150332  1  0
151333  1  0
152334  1  0
156335  1  0
157336  1  1
158337  1  0
158338  1  0
160339  1  0
161340  1  0
162341  1  0
166342  1  0
167343  1  6
168344  1  0
168345  1  0
169346  1  0
172347  1  0
173348  1  1
174349  1  1
175350  1  0
176351  1  0
176352  1  0
176353  1  0
M  CHG  7  40  -1  50   1  69   1  80   1  91   1 133   1 179  -1
M  END
