
     RDKit          2D

368374  0  0  0  0  0  0  0  0999 V2000
  -22.2067    4.9596    0.0000 C   0  0  0  0  0  0  0  0  0  0  0  0
  -23.3798    5.8944    0.0000 N   0  0  0  0  0  0  0  0  0  0  0  0
  -23.1568    7.3777    0.0000 C   0  0  0  0  0  0  0  0  0  0  0  0
  -21.7607    7.9262    0.0000 C   0  0  0  0  0  0  0  0  0  0  0  0
  -21.5376    9.4095    0.0000 C   0  0  0  0  0  0  0  0  0  0  0  0
  -22.7107   10.3444    0.0000 C   0  0  0  0  0  0  0  0  0  0  0  0
  -24.1068    9.7958    0.0000 C   0  0  0  0  0  0  0  0  0  0  0  0
  -24.3299    8.3125    0.0000 C   0  0  0  0  0  0  0  0  0  0  0  0
  -25.0599   10.9541    0.0000 C   0  0  0  0  0  0  0  0  0  0  0  0
  -24.2528   12.2185    0.0000 O   0  0  0  0  0  0  0  0  0  0  0  0
  -22.8009   11.8416    0.0000 C   0  0  0  0  0  0  0  0  0  0  0  0
  -21.6427   12.7947    0.0000 O   0  0  0  0  0  0  0  0  0  0  0  0
  -25.8867   12.2057    0.0000 C   0  0  0  0  0  0  0  0  0  0  0  0
  -27.3840   12.1155    0.0000 C   0  0  0  0  0  0  0  0  0  0  0  0
  -28.2108   13.3670    0.0000 C   0  0  0  0  0  0  0  0  0  0  0  0
  -27.5403   14.7088    0.0000 C   0  0  0  0  0  0  0  0  0  0  0  0
  -26.0430   14.7991    0.0000 C   0  0  0  0  0  0  0  0  0  0  0  0
  -25.2162   13.5475    0.0000 C   0  0  0  0  0  0  0  0  0  0  0  0
  -28.3671   15.9604    0.0000 O   0  0  0  0  0  0  0  0  0  0  0  0
  -28.0545   10.7737    0.0000 O   0  0  0  0  0  0  0  0  0  0  0  0
  -27.2277    9.5221    0.0000 C   0  0  0  0  0  0  0  0  0  0  0  0
  -25.7304    9.6123    0.0000 C   0  0  0  0  0  0  0  0  0  0  0  0
  -25.6023    8.3187    0.0000 C   0  0  0  0  0  0  0  0  0  0  0  0
  -25.9599    7.6030    0.0000 C   0  0  0  0  0  0  0  0  0  0  0  0
  -26.7585    7.5549    0.0000 C   0  0  0  0  0  0  0  0  0  0  0  0
  -27.1994    8.2224    0.0000 C   0  0  0  0  0  0  0  0  0  0  0  0
  -27.7419    5.5869    0.0000 O   0  0  0  0  0  0  0  0  0  0  0  0
  -20.8106    5.5081    0.0000 S   0  0  0  0  0  0  0  0  0  0  0  0
  -22.4298    3.4762    0.0000 N   0  0  0  0  0  0  0  0  0  0  0  0
  -21.2567    2.5414    0.0000 C   0  0  0  0  0  0  0  0  0  0  0  0
  -21.4797    1.0581    0.0000 C   0  0  0  0  0  0  0  0  0  0  0  0
  -20.3066    0.1233    0.0000 C   0  0  0  0  0  0  0  0  0  0  0  0
  -19.6573    0.5856    0.0000 O   0  0  0  0  0  0  0  0  0  0  0  0
  -20.5297   -1.3600    0.0000 N   0  0  0  0  0  0  0  0  0  0  0  0
  -19.3566   -2.2949    0.0000 C   0  0  0  0  0  0  0  0  0  0  0  0
  -18.6397   -0.9773    0.0000 C   0  0  0  0  0  0  0  0  0  0  0  0
  -19.4223    0.3024    0.0000 C   0  0  0  0  0  0  0  0  0  0  0  0
  -18.7054    1.6200    0.0000 C   0  0  0  0  0  0  0  0  0  0  0  0
  -19.4880    2.8996    0.0000 N   0  0  0  0  0  0  0  0  0  0  0  0
  -18.7711    4.2172    0.0000 C   0  0  0  0  0  0  0  0  0  0  0  0
  -19.5537    5.4969    0.0000 N   0  0  0  0  0  0  0  0  0  0  0  0
  -17.2716    4.2551    0.0000 N   0  0  0  0  0  0  0  0  0  0  0  0
  -18.5740   -3.5745    0.0000 C   0  0  0  0  0  0  0  0  0  0  0  0
  -17.0745   -3.5366    0.0000 O   0  0  0  0  0  0  0  0  0  0  0  0
  -19.2909   -4.8921    0.0000 N   0  0  0  0  0  0  0  0  0  0  0  0
  -18.5083   -6.1718    0.0000 C   0  0  0  0  0  0  0  0  0  0  0  0
  -19.9044   -6.7203    0.0000 C   0  0  0  0  0  0  0  0  0  0  0  0
  -21.0775   -5.7855    0.0000 C   0  0  0  0  0  0  0  0  0  0  0  0
  -22.4736   -6.3340    0.0000 C   0  0  0  0  0  0  0  0  0  0  0  0
  -23.6467   -5.3992    0.0000 N   0  0  0  0  0  0  0  0  0  0  0  0
  -25.0428   -5.9477    0.0000 C   0  0  0  0  0  0  0  0  0  0  0  0
  -26.2159   -5.0128    0.0000 N   0  0  0  0  0  0  0  0  0  0  0  0
  -25.2658   -7.4310    0.0000 N   0  0  0  0  0  0  0  0  0  0  0  0
  -17.3352   -7.1066    0.0000 C   0  0  0  0  0  0  0  0  0  0  0  0
  -17.5582   -8.5899    0.0000 O   0  0  0  0  0  0  0  0  0  0  0  0
  -15.9391   -6.5581    0.0000 N   0  0  0  0  0  0  0  0  0  0  0  0
  -14.7660   -7.4929    0.0000 C   0  0  0  0  0  0  0  0  0  0  0  0
  -13.3699   -6.9444    0.0000 C   0  0  0  0  0  0  0  0  0  0  0  0
  -13.3293   -5.4449    0.0000 O   0  0  0  0  0  0  0  0  0  0  0  0
  -12.1968   -7.8792    0.0000 N   0  0  0  0  0  0  0  0  0  0  0  0
  -10.8007   -7.3307    0.0000 C   0  0  0  0  0  0  0  0  0  0  0  0
  -11.5833   -6.0510    0.0000 C   0  0  0  0  0  0  0  0  0  0  0  0
  -13.0763   -5.9059    0.0000 O   0  0  0  0  0  0  0  0  0  0  0  0
   -9.3012   -7.2928    0.0000 C   0  0  0  0  0  0  0  0  0  0  0  0
   -8.9244   -5.8409    0.0000 O   0  0  0  0  0  0  0  0  0  0  0  0
   -8.5186   -8.5724    0.0000 N   0  0  0  0  0  0  0  0  0  0  0  0
   -7.0190   -8.5345    0.0000 C   0  0  0  0  0  0  0  0  0  0  0  0
   -7.3168   -7.0643    0.0000 C   0  0  0  0  0  0  0  0  0  0  0  0
   -8.7388   -6.5871    0.0000 C   0  0  0  0  0  0  0  0  0  0  0  0
   -9.0366   -5.1170    0.0000 C   0  0  0  0  0  0  0  0  0  0  0  0
  -10.4587   -4.6397    0.0000 N   0  0  0  0  0  0  0  0  0  0  0  0
  -10.7564   -3.1696    0.0000 C   0  0  0  0  0  0  0  0  0  0  0  0
  -12.1785   -2.6924    0.0000 N   0  0  0  0  0  0  0  0  0  0  0  0
   -9.6321   -2.1767    0.0000 N   0  0  0  0  0  0  0  0  0  0  0  0
   -5.5970   -9.0117    0.0000 C   0  0  0  0  0  0  0  0  0  0  0  0
   -4.4727   -8.0188    0.0000 O   0  0  0  0  0  0  0  0  0  0  0  0
   -5.2992  -10.4819    0.0000 N   0  0  0  0  0  0  0  0  0  0  0  0
   -6.3136  -11.5869    0.0000 C   0  0  0  0  0  0  0  0  0  0  0  0
   -5.5761  -12.8931    0.0000 C   0  0  0  0  0  0  0  0  0  0  0  0
   -4.1060  -12.5953    0.0000 C   0  0  0  0  0  0  0  0  0  0  0  0
   -3.9349  -11.1051    0.0000 C   0  0  0  0  0  0  0  0  0  0  0  0
   -2.4707  -11.4311    0.0000 C   0  0  0  0  0  0  0  0  0  0  0  0
   -1.4563  -10.3261    0.0000 O   0  0  0  0  0  0  0  0  0  0  0  0
   -2.0209  -12.8621    0.0000 N   0  0  0  0  0  0  0  0  0  0  0  0
   -0.5568  -13.1880    0.0000 C   0  0  0  0  0  0  0  0  0  0  0  0
   -1.1320  -14.5733    0.0000 C   0  0  0  0  0  0  0  0  0  0  0  0
   -2.5846  -14.9476    0.0000 O   0  0  0  0  0  0  0  0  0  0  0  0
    0.9306  -12.9936    0.0000 C   0  0  0  0  0  0  0  0  0  0  0  0
    1.8427  -14.1844    0.0000 O   0  0  0  0  0  0  0  0  0  0  0  0
    1.5058  -11.6082    0.0000 N   0  0  0  0  0  0  0  0  0  0  0  0
    2.9932  -11.4138    0.0000 C   0  0  0  0  0  0  0  0  0  0  0  0
    3.5684  -10.0285    0.0000 C   0  0  0  0  0  0  0  0  0  0  0  0
    2.5180   -8.9577    0.0000 O   0  0  0  0  0  0  0  0  0  0  0  0
    5.0558   -9.8340    0.0000 N   0  0  0  0  0  0  0  0  0  0  0  0
    5.6310   -8.4487    0.0000 C   0  0  0  0  0  0  0  0  0  0  0  0
    4.1669   -8.1227    0.0000 C   0  0  0  0  0  0  0  0  0  0  0  0
    6.6454   -7.3437    0.0000 C   0  0  0  0  0  0  0  0  0  0  0  0
    5.8627   -6.0641    0.0000 O   0  0  0  0  0  0  0  0  0  0  0  0
    8.1096   -7.6696    0.0000 N   0  0  0  0  0  0  0  0  0  0  0  0
    9.1239   -6.5646    0.0000 C   0  0  0  0  0  0  0  0  0  0  0  0
    7.6834   -6.1465    0.0000 C   0  0  0  0  0  0  0  0  0  0  0  0
    6.3480   -5.4632    0.0000 C   0  0  0  0  0  0  0  0  0  0  0  0
    5.1661   -4.5396    0.0000 C   0  0  0  0  0  0  0  0  0  0  0  0
    4.1803   -3.4090    0.0000 C   0  0  0  0  0  0  0  0  0  0  0  0
    3.4263   -2.1123    0.0000 C   0  0  0  0  0  0  0  0  0  0  0  0
    2.9314   -0.6963    0.0000 C   0  0  0  0  0  0  0  0  0  0  0  0
    2.7133    0.7878    0.0000 C   0  0  0  0  0  0  0  0  0  0  0  0
    9.6636   -7.9642    0.0000 C   0  0  0  0  0  0  0  0  0  0  0  0
   10.6176   -6.7026    0.0000 C   0  0  0  0  0  0  0  0  0  0  0  0
   10.8050   -8.1909    0.0000 O   0  0  0  0  0  0  0  0  0  0  0  0
   12.1103   -6.5554    0.0000 N   0  0  0  0  0  0  0  0  0  0  0  0
   13.5483   -6.1284    0.0000 C   0  0  0  0  0  0  0  0  0  0  0  0
   14.7589   -7.0141    0.0000 C   0  0  0  0  0  0  0  0  0  0  0  0
   14.5972   -8.5053    0.0000 C   0  0  0  0  0  0  0  0  0  0  0  0
   15.8079   -9.3910    0.0000 C   0  0  0  0  0  0  0  0  0  0  0  0
   15.6462  -10.8822    0.0000 N   0  0  0  0  0  0  0  0  0  0  0  0
   16.8568  -11.7679    0.0000 C   0  0  0  0  0  0  0  0  0  0  0  0
   16.6952  -13.2591    0.0000 N   0  0  0  0  0  0  0  0  0  0  0  0
   18.2291  -11.1622    0.0000 N   0  0  0  0  0  0  0  0  0  0  0  0
   14.8794   -5.4370    0.0000 C   0  0  0  0  0  0  0  0  0  0  0  0
   15.8417   -6.5876    0.0000 O   0  0  0  0  0  0  0  0  0  0  0  0
   16.0556   -4.5061    0.0000 N   0  0  0  0  0  0  0  0  0  0  0  0
   17.0344   -3.3695    0.0000 C   0  0  0  0  0  0  0  0  0  0  0  0
   18.5317   -3.4600    0.0000 C   0  0  0  0  0  0  0  0  0  0  0  0
   19.2019   -4.8019    0.0000 C   0  0  0  0  0  0  0  0  0  0  0  0
   20.6992   -4.8925    0.0000 C   0  0  0  0  0  0  0  0  0  0  0  0
   21.3694   -6.2344    0.0000 N   0  0  0  0  0  0  0  0  0  0  0  0
   22.8667   -6.3249    0.0000 C   0  0  0  0  0  0  0  0  0  0  0  0
   23.5369   -7.6669    0.0000 N   0  0  0  0  0  0  0  0  0  0  0  0
   23.6937   -5.0735    0.0000 N   0  0  0  0  0  0  0  0  0  0  0  0
   17.7804   -2.0681    0.0000 C   0  0  0  0  0  0  0  0  0  0  0  0
   19.2120   -2.5159    0.0000 O   0  0  0  0  0  0  0  0  0  0  0  0
   18.2667   -0.6491    0.0000 N   0  0  0  0  0  0  0  0  0  0  0  0
   18.4756    0.8362    0.0000 C   0  0  0  0  0  0  0  0  0  0  0  0
   19.7841    1.5696    0.0000 C   0  0  0  0  0  0  0  0  0  0  0  0
   21.0734    0.8030    0.0000 C   0  0  0  0  0  0  0  0  0  0  0  0
   22.3819    1.5363    0.0000 C   0  0  0  0  0  0  0  0  0  0  0  0
   23.6713    0.7698    0.0000 N   0  0  0  0  0  0  0  0  0  0  0  0
   24.9798    1.5031    0.0000 C   0  0  0  0  0  0  0  0  0  0  0  0
   26.2692    0.7366    0.0000 N   0  0  0  0  0  0  0  0  0  0  0  0
   24.9990    3.0030    0.0000 N   0  0  0  0  0  0  0  0  0  0  0  0
   18.3996    2.3343    0.0000 C   0  0  0  0  0  0  0  0  0  0  0  0
   19.8460    2.7316    0.0000 O   0  0  0  0  0  0  0  0  0  0  0  0
   18.0415    3.7909    0.0000 N   0  0  0  0  0  0  0  0  0  0  0  0
   17.4141    5.1535    0.0000 C   0  0  0  0  0  0  0  0  0  0  0  0
   18.1185    6.4778    0.0000 C   0  0  0  0  0  0  0  0  0  0  0  0
   19.6176    6.5300    0.0000 C   0  0  0  0  0  0  0  0  0  0  0  0
   20.3219    7.8544    0.0000 C   0  0  0  0  0  0  0  0  0  0  0  0
   21.8210    7.9066    0.0000 N   0  0  0  0  0  0  0  0  0  0  0  0
   22.5253    9.2309    0.0000 C   0  0  0  0  0  0  0  0  0  0  0  0
   24.0244    9.2831    0.0000 N   0  0  0  0  0  0  0  0  0  0  0  0
   21.7306   10.5031    0.0000 N   0  0  0  0  0  0  0  0  0  0  0  0
   16.5403    6.3726    0.0000 C   0  0  0  0  0  0  0  0  0  0  0  0
   17.5423    7.4889    0.0000 O   0  0  0  0  0  0  0  0  0  0  0  0
   15.4515    7.4044    0.0000 N   0  0  0  0  0  0  0  0  0  0  0  0
   14.1872    8.2115    0.0000 C   0  0  0  0  0  0  0  0  0  0  0  0
   14.0637    9.7064    0.0000 C   0  0  0  0  0  0  0  0  0  0  0  0
   15.2966   10.5608    0.0000 C   0  0  0  0  0  0  0  0  0  0  0  0
   15.1731   12.0557    0.0000 C   0  0  0  0  0  0  0  0  0  0  0  0
   16.4060   12.9101    0.0000 N   0  0  0  0  0  0  0  0  0  0  0  0
   16.2825   14.4050    0.0000 C   0  0  0  0  0  0  0  0  0  0  0  0
   17.5154   15.2594    0.0000 N   0  0  0  0  0  0  0  0  0  0  0  0
   14.9261   15.0455    0.0000 N   0  0  0  0  0  0  0  0  0  0  0  0
   12.7929    8.7647    0.0000 C   0  0  0  0  0  0  0  0  0  0  0  0
   13.0323   10.2455    0.0000 O   0  0  0  0  0  0  0  0  0  0  0  0
   11.3191    9.0440    0.0000 N   0  0  0  0  0  0  0  0  0  0  0  0
    9.8191    9.0394    0.0000 C   0  0  0  0  0  0  0  0  0  0  0  0
    8.9071   10.2303    0.0000 C   0  0  0  0  0  0  0  0  0  0  0  0
    9.4823   11.6156    0.0000 C   0  0  0  0  0  0  0  0  0  0  0  0
    8.5702   12.8064    0.0000 C   0  0  0  0  0  0  0  0  0  0  0  0
    9.1455   14.1917    0.0000 N   0  0  0  0  0  0  0  0  0  0  0  0
    8.2334   15.3826    0.0000 C   0  0  0  0  0  0  0  0  0  0  0  0
    8.8087   16.7679    0.0000 N   0  0  0  0  0  0  0  0  0  0  0  0
    6.7461   15.1881    0.0000 N   0  0  0  0  0  0  0  0  0  0  0  0
    8.3471    8.7510    0.0000 C   0  0  0  0  0  0  0  0  0  0  0  0
    7.7480   10.1262    0.0000 O   0  0  0  0  0  0  0  0  0  0  0  0
    6.9563    8.1893    0.0000 N   0  0  0  0  0  0  0  0  0  0  0  0
    5.6969    7.3744    0.0000 C   0  0  0  0  0  0  0  0  0  0  0  0
    4.6145    6.3360    0.0000 C   0  0  0  0  0  0  0  0  0  0  0  0
    3.7482    5.1114    0.0000 C   0  0  0  0  0  0  0  0  0  0  0  0
    3.1293    3.7451    0.0000 C   0  0  0  0  0  0  0  0  0  0  0  0
    2.7801    2.2863    0.0000 C   0  0  0  0  0  0  0  0  0  0  0  0
    5.5261    8.8647    0.0000 C   0  0  0  0  0  0  0  0  0  0  0  0
    4.2858    7.8831    0.0000 C   0  0  0  0  0  0  0  0  0  0  0  0
    3.8428    9.3162    0.0000 O   0  0  0  0  0  0  0  0  0  0  0  0
    2.9396    7.2215    0.0000 O   0  0  0  0  0  0  0  0  0  0  0  0
  -24.6987    5.1798    0.0000 H   0  0  0  0  0  0  0  0  0  0  0  0
  -20.5876    6.9914    0.0000 H   0  0  0  0  0  0  0  0  0  0  0  0
  -20.1415    9.9580    0.0000 H   0  0  0  0  0  0  0  0  0  0  0  0
  -25.5518    7.4425    0.0000 H   0  0  0  0  0  0  0  0  0  0  0  0
  -29.7081   13.2768    0.0000 H   0  0  0  0  0  0  0  0  0  0  0  0
  -25.3725   16.1409    0.0000 H   0  0  0  0  0  0  0  0  0  0  0  0
  -23.7189   13.6377    0.0000 H   0  0  0  0  0  0  0  0  0  0  0  0
  -27.6966   17.3022    0.0000 H   0  0  0  0  0  0  0  0  0  0  0  0
  -23.4063    8.4510    0.0000 H   0  0  0  0  0  0  0  0  0  0  0  0
  -24.9060    5.6759    0.0000 H   0  0  0  0  0  0  0  0  0  0  0  0
  -29.3955    8.0900    0.0000 H   0  0  0  0  0  0  0  0  0  0  0  0
  -29.2392    5.4967    0.0000 H   0  0  0  0  0  0  0  0  0  0  0  0
  -23.8259    2.9277    0.0000 H   0  0  0  0  0  0  0  0  0  0  0  0
  -20.5398    3.8590    0.0000 H   0  0  0  0  0  0  0  0  0  0  0  0
  -19.7614    2.4225    0.0000 H   0  0  0  0  0  0  0  0  0  0  0  0
  -22.9018    1.5353    0.0000 H   0  0  0  0  0  0  0  0  0  0  0  0
  -22.1966   -0.2595    0.0000 H   0  0  0  0  0  0  0  0  0  0  0  0
  -21.9258   -1.9086    0.0000 H   0  0  0  0  0  0  0  0  0  0  0  0
  -20.4809   -3.2878    0.0000 H   0  0  0  0  0  0  0  0  0  0  0  0
  -17.4027   -0.1288    0.0000 H   0  0  0  0  0  0  0  0  0  0  0  0
  -17.4666   -1.9121    0.0000 H   0  0  0  0  0  0  0  0  0  0  0  0
  -20.5954    1.2372    0.0000 H   0  0  0  0  0  0  0  0  0  0  0  0
  -20.7535   -0.3890    0.0000 H   0  0  0  0  0  0  0  0  0  0  0  0
  -17.5811    2.6129    0.0000 H   0  0  0  0  0  0  0  0  0  0  0  0
  -17.4271    0.8351    0.0000 H   0  0  0  0  0  0  0  0  0  0  0  0
  -20.9521    3.2257    0.0000 H   0  0  0  0  0  0  0  0  0  0  0  0
  -18.8368    6.8145    0.0000 H   0  0  0  0  0  0  0  0  0  0  0  0
  -16.5546    5.5727    0.0000 H   0  0  0  0  0  0  0  0  0  0  0  0
  -16.4889    2.9755    0.0000 H   0  0  0  0  0  0  0  0  0  0  0  0
  -20.7839   -4.7470    0.0000 H   0  0  0  0  0  0  0  0  0  0  0  0
  -17.3840   -5.1788    0.0000 H   0  0  0  0  0  0  0  0  0  0  0  0
  -20.8993   -7.8429    0.0000 H   0  0  0  0  0  0  0  0  0  0  0  0
  -19.1218   -7.9999    0.0000 H   0  0  0  0  0  0  0  0  0  0  0  0
  -21.8601   -4.5058    0.0000 H   0  0  0  0  0  0  0  0  0  0  0  0
  -20.3838   -4.4555    0.0000 H   0  0  0  0  0  0  0  0  0  0  0  0
  -23.5979   -7.3269    0.0000 H   0  0  0  0  0  0  0  0  0  0  0  0
  -21.8528   -7.6995    0.0000 H   0  0  0  0  0  0  0  0  0  0  0  0
  -23.4236   -3.9158    0.0000 H   0  0  0  0  0  0  0  0  0  0  0  0
  -27.6120   -5.5614    0.0000 H   0  0  0  0  0  0  0  0  0  0  0  0
  -26.6619   -7.9795    0.0000 H   0  0  0  0  0  0  0  0  0  0  0  0
  -24.0927   -8.3658    0.0000 H   0  0  0  0  0  0  0  0  0  0  0  0
  -15.7161   -5.0747    0.0000 H   0  0  0  0  0  0  0  0  0  0  0  0
  -15.8903   -8.4858    0.0000 H   0  0  0  0  0  0  0  0  0  0  0  0
  -13.9834   -8.7725    0.0000 H   0  0  0  0  0  0  0  0  0  0  0  0
  -12.4198   -9.3625    0.0000 H   0  0  0  0  0  0  0  0  0  0  0  0
  -10.5030   -8.8008    0.0000 H   0  0  0  0  0  0  0  0  0  0  0  0
  -11.8810   -4.5809    0.0000 H   0  0  0  0  0  0  0  0  0  0  0  0
  -10.3614   -5.1810    0.0000 H   0  0  0  0  0  0  0  0  0  0  0  0
  -13.8654   -4.8093    0.0000 H   0  0  0  0  0  0  0  0  0  0  0  0
   -9.2355   -9.8900    0.0000 H   0  0  0  0  0  0  0  0  0  0  0  0
   -7.4212   -9.9796    0.0000 H   0  0  0  0  0  0  0  0  0  0  0  0
   -6.9146   -5.6193    0.0000 H   0  0  0  0  0  0  0  0  0  0  0  0
   -5.8173   -7.0264    0.0000 H   0  0  0  0  0  0  0  0  0  0  0  0
  -10.2384   -6.6250    0.0000 H   0  0  0  0  0  0  0  0  0  0  0  0
   -9.3142   -7.9724    0.0000 H   0  0  0  0  0  0  0  0  0  0  0  0
   -8.8136   -3.6336    0.0000 H   0  0  0  0  0  0  0  0  0  0  0  0
   -7.5529   -4.8965    0.0000 H   0  0  0  0  0  0  0  0  0  0  0  0
  -11.7898   -5.3311    0.0000 H   0  0  0  0  0  0  0  0  0  0  0  0
  -12.4762   -1.2222    0.0000 H   0  0  0  0  0  0  0  0  0  0  0  0
   -9.9298   -0.7065    0.0000 H   0  0  0  0  0  0  0  0  0  0  0  0
   -8.2100   -2.6539    0.0000 H   0  0  0  0  0  0  0  0  0  0  0  0
   -7.4362  -10.5920    0.0000 H   0  0  0  0  0  0  0  0  0  0  0  0
   -7.5356  -12.4568    0.0000 H   0  0  0  0  0  0  0  0  0  0  0  0
   -6.9523  -13.4900    0.0000 H   0  0  0  0  0  0  0  0  0  0  0  0
   -5.1264  -14.3240    0.0000 H   0  0  0  0  0  0  0  0  0  0  0  0
   -3.9635  -14.0885    0.0000 H   0  0  0  0  0  0  0  0  0  0  0  0
   -2.6541  -12.9723    0.0000 H   0  0  0  0  0  0  0  0  0  0  0  0
   -3.4576   -9.6831    0.0000 H   0  0  0  0  0  0  0  0  0  0  0  0
   -3.1624  -13.8352    0.0000 H   0  0  0  0  0  0  0  0  0  0  0  0
   -0.4900  -11.6895    0.0000 H   0  0  0  0  0  0  0  0  0  0  0  0
   -1.1988  -16.0718    0.0000 H   0  0  0  0  0  0  0  0  0  0  0  0
    0.3321  -14.8993    0.0000 H   0  0  0  0  0  0  0  0  0  0  0  0
   -3.1946  -16.1531    0.0000 H   0  0  0  0  0  0  0  0  0  0  0  0
    0.5938  -10.4174    0.0000 H   0  0  0  0  0  0  0  0  0  0  0  0
    2.9264  -12.9123    0.0000 H   0  0  0  0  0  0  0  0  0  0  0  0
    4.4573  -11.7397    0.0000 H   0  0  0  0  0  0  0  0  0  0  0  0
    5.9679  -11.0248    0.0000 H   0  0  0  0  0  0  0  0  0  0  0  0
    6.8954   -9.2558    0.0000 H   0  0  0  0  0  0  0  0  0  0  0  0
    3.0254   -9.0959    0.0000 H   0  0  0  0  0  0  0  0  0  0  0  0
    2.9025   -7.3157    0.0000 H   0  0  0  0  0  0  0  0  0  0  0  0
    4.7421   -6.7374    0.0000 H   0  0  0  0  0  0  0  0  0  0  0  0
    8.3816   -9.1448    0.0000 H   0  0  0  0  0  0  0  0  0  0  0  0
    7.5833   -7.6431    0.0000 H   0  0  0  0  0  0  0  0  0  0  0  0
    6.3784   -6.8860    0.0000 H   0  0  0  0  0  0  0  0  0  0  0  0
    5.7925   -6.8566    0.0000 H   0  0  0  0  0  0  0  0  0  0  0  0
    4.9956   -6.1121    0.0000 H   0  0  0  0  0  0  0  0  0  0  0  0
    4.8634   -6.0088    0.0000 H   0  0  0  0  0  0  0  0  0  0  0  0
    3.7726   -5.0948    0.0000 H   0  0  0  0  0  0  0  0  0  0  0  0
    3.4405   -4.7139    0.0000 H   0  0  0  0  0  0  0  0  0  0  0  0
    2.7070   -3.6905    0.0000 H   0  0  0  0  0  0  0  0  0  0  0  0
    2.4529   -3.2536    0.0000 H   0  0  0  0  0  0  0  0  0  0  0  0
    1.9263   -2.1098    0.0000 H   0  0  0  0  0  0  0  0  0  0  0  0
    1.7596   -1.6327    0.0000 H   0  0  0  0  0  0  0  0  0  0  0  0
    1.5048   -0.2327    0.0000 H   0  0  0  0  0  0  0  0  0  0  0  0
    1.2153    0.7118    0.0000 H   0  0  0  0  0  0  0  0  0  0  0  0
    8.8706   -9.2375    0.0000 H   0  0  0  0  0  0  0  0  0  0  0  0
   10.5042   -9.2065    0.0000 H   0  0  0  0  0  0  0  0  0  0  0  0
   11.0974   -7.5236    0.0000 H   0  0  0  0  0  0  0  0  0  0  0  0
   12.2172   -8.0516    0.0000 H   0  0  0  0  0  0  0  0  0  0  0  0
   13.1141   -7.5642    0.0000 H   0  0  0  0  0  0  0  0  0  0  0  0
   16.1994   -7.4322    0.0000 H   0  0  0  0  0  0  0  0  0  0  0  0
   15.7269   -5.8682    0.0000 H   0  0  0  0  0  0  0  0  0  0  0  0
   13.9353   -9.8514    0.0000 H   0  0  0  0  0  0  0  0  0  0  0  0
   13.0983   -8.4482    0.0000 H   0  0  0  0  0  0  0  0  0  0  0  0
   17.2484   -9.8091    0.0000 H   0  0  0  0  0  0  0  0  0  0  0  0
   16.6290   -8.1357    0.0000 H   0  0  0  0  0  0  0  0  0  0  0  0
   14.2739  -11.4878    0.0000 H   0  0  0  0  0  0  0  0  0  0  0  0
   17.9058  -14.1448    0.0000 H   0  0  0  0  0  0  0  0  0  0  0  0
   19.4398  -12.0479    0.0000 H   0  0  0  0  0  0  0  0  0  0  0  0
   18.3908   -9.6710    0.0000 H   0  0  0  0  0  0  0  0  0  0  0  0
   16.9544   -5.7070    0.0000 H   0  0  0  0  0  0  0  0  0  0  0  0
   17.4454   -4.8121    0.0000 H   0  0  0  0  0  0  0  0  0  0  0  0
   19.9696   -3.0330    0.0000 H   0  0  0  0  0  0  0  0  0  0  0  0
   18.7265   -1.9727    0.0000 H   0  0  0  0  0  0  0  0  0  0  0  0
   19.3728   -6.2922    0.0000 H   0  0  0  0  0  0  0  0  0  0  0  0
   17.9100   -5.5642    0.0000 H   0  0  0  0  0  0  0  0  0  0  0  0
   22.1371   -4.4654    0.0000 H   0  0  0  0  0  0  0  0  0  0  0  0
   20.7113   -3.3925    0.0000 H   0  0  0  0  0  0  0  0  0  0  0  0
   20.5424   -7.4858    0.0000 H   0  0  0  0  0  0  0  0  0  0  0  0
   25.0342   -7.7574    0.0000 H   0  0  0  0  0  0  0  0  0  0  0  0
   25.1910   -5.1641    0.0000 H   0  0  0  0  0  0  0  0  0  0  0  0
   23.0235   -3.7316    0.0000 H   0  0  0  0  0  0  0  0  0  0  0  0
   19.6720   -1.1735    0.0000 H   0  0  0  0  0  0  0  0  0  0  0  0
   19.6012   -0.1551    0.0000 H   0  0  0  0  0  0  0  0  0  0  0  0
   20.7629    2.7062    0.0000 H   0  0  0  0  0  0  0  0  0  0  0  0
   19.1439    2.9261    0.0000 H   0  0  0  0  0  0  0  0  0  0  0  0
   22.0228   -0.3583    0.0000 H   0  0  0  0  0  0  0  0  0  0  0  0
   20.3988   -0.5367    0.0000 H   0  0  0  0  0  0  0  0  0  0  0  0
   23.3607    2.6730    0.0000 H   0  0  0  0  0  0  0  0  0  0  0  0
   21.5812    2.8047    0.0000 H   0  0  0  0  0  0  0  0  0  0  0  0
   23.6521   -0.7301    0.0000 H   0  0  0  0  0  0  0  0  0  0  0  0
   27.5777    1.4699    0.0000 H   0  0  0  0  0  0  0  0  0  0  0  0
   26.3075    3.7363    0.0000 H   0  0  0  0  0  0  0  0  0  0  0  0
   23.7097    3.7695    0.0000 H   0  0  0  0  0  0  0  0  0  0  0  0
   19.5072    4.1096    0.0000 H   0  0  0  0  0  0  0  0  0  0  0  0
   18.8971    4.9280    0.0000 H   0  0  0  0  0  0  0  0  0  0  0  0
   18.3274    7.9632    0.0000 H   0  0  0  0  0  0  0  0  0  0  0  0
   16.8465    7.2729    0.0000 H   0  0  0  0  0  0  0  0  0  0  0  0
   21.0441    6.0664    0.0000 H   0  0  0  0  0  0  0  0  0  0  0  0
   19.7743    5.0382    0.0000 H   0  0  0  0  0  0  0  0  0  0  0  0
   20.5308    9.3398    0.0000 H   0  0  0  0  0  0  0  0  0  0  0  0
   18.9625    8.4885    0.0000 H   0  0  0  0  0  0  0  0  0  0  0  0
   22.6157    6.6344    0.0000 H   0  0  0  0  0  0  0  0  0  0  0  0
   24.7288   10.6075    0.0000 H   0  0  0  0  0  0  0  0  0  0  0  0
   22.4349   11.8274    0.0000 H   0  0  0  0  0  0  0  0  0  0  0  0
   20.2315   10.4509    0.0000 H   0  0  0  0  0  0  0  0  0  0  0  0
   16.5123    8.4650    0.0000 H   0  0  0  0  0  0  0  0  0  0  0  0
   15.5566    8.8236    0.0000 H   0  0  0  0  0  0  0  0  0  0  0  0
   13.4364   11.0689    0.0000 H   0  0  0  0  0  0  0  0  0  0  0  0
   12.5638    9.6876    0.0000 H   0  0  0  0  0  0  0  0  0  0  0  0
   16.7473   10.9420    0.0000 H   0  0  0  0  0  0  0  0  0  0  0  0
   16.2349    9.3906    0.0000 H   0  0  0  0  0  0  0  0  0  0  0  0
   14.5458   13.4182    0.0000 H   0  0  0  0  0  0  0  0  0  0  0  0
   13.6867   11.8542    0.0000 H   0  0  0  0  0  0  0  0  0  0  0  0
   17.7624   12.2696    0.0000 H   0  0  0  0  0  0  0  0  0  0  0  0
   17.3919   16.7543    0.0000 H   0  0  0  0  0  0  0  0  0  0  0  0
   14.8027   16.5404    0.0000 H   0  0  0  0  0  0  0  0  0  0  0  0
   13.6933   14.1911    0.0000 H   0  0  0  0  0  0  0  0  0  0  0  0
   11.6382   10.5097    0.0000 H   0  0  0  0  0  0  0  0  0  0  0  0
   10.6402   10.2947    0.0000 H   0  0  0  0  0  0  0  0  0  0  0  0
    7.6427   11.0374    0.0000 H   0  0  0  0  0  0  0  0  0  0  0  0
    7.6554    9.4036    0.0000 H   0  0  0  0  0  0  0  0  0  0  0  0
   10.4967   12.7206    0.0000 H   0  0  0  0  0  0  0  0  0  0  0  0
   10.9044   11.1384    0.0000 H   0  0  0  0  0  0  0  0  0  0  0  0
    7.3059   13.6135    0.0000 H   0  0  0  0  0  0  0  0  0  0  0  0
    7.4287   11.8333    0.0000 H   0  0  0  0  0  0  0  0  0  0  0  0
   10.6328   14.3862    0.0000 H   0  0  0  0  0  0  0  0  0  0  0  0
    7.8966   17.9587    0.0000 H   0  0  0  0  0  0  0  0  0  0  0  0
    5.8340   16.3790    0.0000 H   0  0  0  0  0  0  0  0  0  0  0  0
    6.1708   13.8028    0.0000 H   0  0  0  0  0  0  0  0  0  0  0  0
    6.4323    9.5947    0.0000 H   0  0  0  0  0  0  0  0  0  0  0  0
    3.1326    6.5684    0.0000 H   0  0  0  0  0  0  0  0  0  0  0  0
    3.8318    7.6156    0.0000 H   0  0  0  0  0  0  0  0  0  0  0  0
    2.2539    5.2423    0.0000 H   0  0  0  0  0  0  0  0  0  0  0  0
    2.7375    6.2198    0.0000 H   0  0  0  0  0  0  0  0  0  0  0  0
    1.6671    3.4101    0.0000 H   0  0  0  0  0  0  0  0  0  0  0  0
    2.0454    4.7820    0.0000 H   0  0  0  0  0  0  0  0  0  0  0  0
    1.2947    2.4952    0.0000 H   0  0  0  0  0  0  0  0  0  0  0  0
    4.2331    9.6251    0.0000 H   0  0  0  0  0  0  0  0  0  0  0  0
    5.6948   10.3551    0.0000 H   0  0  0  0  0  0  0  0  0  0  0  0
    7.0007    9.1391    0.0000 H   0  0  0  0  0  0  0  0  0  0  0  0
    1.7286    7.4241    0.0000 H   0  0  0  0  0  0  0  0  0  0  0  0
  1  2  1  0
  2  3  1  0
  3  4  2  0
  4  5  1  0
  5  6  2  0
  6  7  1  0
  7  8  2  0
  7  9  1  0
  9 10  1  0
 10 11  1  0
 11 12  2  0
  9 13  1  0
 13 14  1  0
 14 15  2  0
 15 16  1  0
 16 17  2  0
 17 18  1  0
 16 19  1  0
 14 20  1  0
 20 21  1  0
 21 22  2  0
 22 23  1  0
 23 24  2  0
 24 25  1  0
 25 26  2  0
 25 27  1  0
  1 28  2  0
  1 29  1  0
 29 30  1  0
 30 31  1  0
 31 32  1  0
 32 33  2  0
 32 34  1  0
 34 35  1  0
 35 36  1  0
 36 37  1  0
 37 38  1  0
 38 39  1  0
 39 40  1  0
 40 41  2  3
 40 42  1  0
 35 43  1  0
 43 44  2  0
 43 45  1  0
 45 46  1  0
 46 47  1  0
 47 48  1  0
 48 49  1  0
 49 50  1  0
 50 51  1  0
 51 52  2  3
 51 53  1  0
 46 54  1  0
 54 55  2  0
 54 56  1  0
 56 57  1  0
 57 58  1  0
 58 59  2  0
 58 60  1  0
 60 61  1  0
 61 62  1  0
 62 63  1  0
 61 64  1  0
 64 65  2  0
 64 66  1  0
 66 67  1  0
 67 68  1  0
 68 69  1  0
 69 70  1  0
 70 71  1  0
 71 72  1  0
 72 73  2  3
 72 74  1  0
 67 75  1  0
 75 76  2  0
 75 77  1  0
 77 78  1  0
 78 79  1  0
 79 80  1  0
 80 81  1  0
 81 82  1  0
 82 83  2  0
 82 84  1  0
 84 85  1  0
 85 86  1  0
 86 87  1  0
 85 88  1  0
 88 89  2  0
 88 90  1  0
 90 91  1  0
 91 92  1  0
 92 93  2  0
 92 94  1  0
 94 95  1  0
 95 96  1  0
 95 97  1  0
 97 98  2  0
 97 99  1  0
100 99  1  6
100101  1  0
101102  1  0
102103  1  0
103104  1  0
104105  1  0
105106  1  0
106107  1  0
100108  1  0
100109  1  0
109110  2  0
109111  1  0
111112  1  0
112113  1  0
113114  1  0
114115  1  0
115116  1  0
116117  1  0
117118  2  3
117119  1  0
112120  1  0
120121  2  0
120122  1  0
122123  1  0
123124  1  0
124125  1  0
125126  1  0
126127  1  0
127128  1  0
128129  2  3
128130  1  0
123131  1  0
131132  2  0
131133  1  0
133134  1  0
134135  1  0
135136  1  0
136137  1  0
137138  1  0
138139  1  0
139140  2  3
139141  1  0
134142  1  0
142143  2  0
142144  1  0
144145  1  0
145146  1  0
146147  1  0
147148  1  0
148149  1  0
149150  1  0
150151  2  3
150152  1  0
145153  1  0
153154  2  0
153155  1  0
155156  1  0
156157  1  0
157158  1  0
158159  1  0
159160  1  0
160161  1  0
161162  2  3
161163  1  0
156164  1  0
164165  2  0
164166  1  0
166167  1  0
167168  1  0
168169  1  0
169170  1  0
170171  1  0
171172  1  0
172173  2  3
172174  1  0
167175  1  0
175176  2  0
175177  1  0
177178  1  0
178179  1  0
179180  1  0
180181  1  0
181182  1  0
178183  1  0
178184  1  1
184185  2  0
184186  1  0
  8  3  1  0
 81 77  1  0
 11  6  1  0
107182  2  0
 18 13  2  0
 22  9  1  0
 26 21  1  0
  2187  1  0
  4188  1  0
  5189  1  0
  8190  1  0
 15191  1  0
 17192  1  0
 18193  1  0
 19194  1  0
 23195  1  0
 24196  1  0
 26197  1  0
 27198  1  0
 29199  1  0
 30200  1  0
 30201  1  0
 31202  1  0
 31203  1  0
 34204  1  0
 35205  1  1
 36206  1  0
 36207  1  0
 37208  1  0
 37209  1  0
 38210  1  0
 38211  1  0
 39212  1  0
 41213  1  0
 42214  1  0
 42215  1  0
 45216  1  0
 46217  1  6
 47218  1  0
 47219  1  0
 48220  1  0
 48221  1  0
 49222  1  0
 49223  1  0
 50224  1  0
 52225  1  0
 53226  1  0
 53227  1  0
 56228  1  0
 57229  1  0
 57230  1  0
 60231  1  0
 61232  1  1
 62233  1  0
 62234  1  0
 63235  1  0
 66236  1  0
 67237  1  1
 68238  1  0
 68239  1  0
 69240  1  0
 69241  1  0
 70242  1  0
 70243  1  0
 71244  1  0
 73245  1  0
 74246  1  0
 74247  1  0
 78248  1  0
 78249  1  0
 79250  1  0
 79251  1  0
 80252  1  0
 80253  1  0
 81254  1  0
 84255  1  0
 85256  1  6
 86257  1  0
 86258  1  0
 87259  1  0
 90260  1  0
 91261  1  0
 91262  1  0
 94263  1  0
 95264  1  1
 96265  1  0
 96266  1  0
 96267  1  0
 99268  1  0
101269  1  0
101270  1  0
102271  1  0
102272  1  0
103273  1  0
103274  1  0
104275  1  0
104276  1  0
105277  1  0
105278  1  0
106279  1  0
106280  1  0
107281  1  0
108282  1  0
108283  1  0
108284  1  0
111285  1  0
112286  1  6
113287  1  0
113288  1  0
114289  1  0
114290  1  0
115291  1  0
115292  1  0
116293  1  0
118294  1  0
119295  1  0
119296  1  0
122297  1  0
123298  1  6
124299  1  0
124300  1  0
125301  1  0
125302  1  0
126303  1  0
126304  1  0
127305  1  0
129306  1  0
130307  1  0
130308  1  0
133309  1  0
134310  1  6
135311  1  0
135312  1  0
136313  1  0
136314  1  0
137315  1  0
137316  1  0
138317  1  0
140318  1  0
141319  1  0
141320  1  0
144321  1  0
145322  1  6
146323  1  0
146324  1  0
147325  1  0
147326  1  0
148327  1  0
148328  1  0
149329  1  0
151330  1  0
152331  1  0
152332  1  0
155333  1  0
156334  1  6
157335  1  0
157336  1  0
158337  1  0
158338  1  0
159339  1  0
159340  1  0
160341  1  0
162342  1  0
163343  1  0
163344  1  0
166345  1  0
167346  1  6
168347  1  0
168348  1  0
169349  1  0
169350  1  0
170351  1  0
170352  1  0
171353  1  0
173354  1  0
174355  1  0
174356  1  0
177357  1  0
179358  1  0
179359  1  0
180360  1  0
180361  1  0
181362  1  0
181363  1  0
182364  1  0
183365  1  0
183366  1  0
183367  1  0
186368  1  0
M  END
