
     RDKit          2D

288296  0  0  0  0  0  0  0  0999 V2000
  -23.7504   -2.6345    0.0000 C   0  0  0  0  0  0  0  0  0  0  0  0
  -24.7384   -3.7632    0.0000 N   0  0  0  0  0  0  0  0  0  0  0  0
  -26.2099   -3.4719    0.0000 C   0  0  0  0  0  0  0  0  0  0  0  0
  -26.6933   -2.0519    0.0000 C   0  0  0  0  0  0  0  0  0  0  0  0
  -28.1648   -1.7607    0.0000 C   0  0  0  0  0  0  0  0  0  0  0  0
  -29.1527   -2.8893    0.0000 C   0  0  0  0  0  0  0  0  0  0  0  0
  -28.6693   -4.3093    0.0000 C   0  0  0  0  0  0  0  0  0  0  0  0
  -27.1978   -4.6006    0.0000 C   0  0  0  0  0  0  0  0  0  0  0  0
  -29.8703   -5.2079    0.0000 C   0  0  0  0  0  0  0  0  0  0  0  0
  -31.0961   -4.3433    0.0000 O   0  0  0  0  0  0  0  0  0  0  0  0
  -30.6526   -2.9103    0.0000 C   0  0  0  0  0  0  0  0  0  0  0  0
  -31.5512   -1.7093    0.0000 O   0  0  0  0  0  0  0  0  0  0  0  0
  -31.1587   -5.9760    0.0000 C   0  0  0  0  0  0  0  0  0  0  0  0
  -31.1377   -7.4758    0.0000 C   0  0  0  0  0  0  0  0  0  0  0  0
  -32.4261   -8.2440    0.0000 C   0  0  0  0  0  0  0  0  0  0  0  0
  -33.7356   -7.5122    0.0000 C   0  0  0  0  0  0  0  0  0  0  0  0
  -33.7566   -6.0124    0.0000 C   0  0  0  0  0  0  0  0  0  0  0  0
  -32.4682   -5.2443    0.0000 C   0  0  0  0  0  0  0  0  0  0  0  0
  -35.0240   -8.2804    0.0000 O   0  0  0  0  0  0  0  0  0  0  0  0
  -29.8283   -8.2076    0.0000 O   0  0  0  0  0  0  0  0  0  0  0  0
  -28.5399   -7.4395    0.0000 C   0  0  0  0  0  0  0  0  0  0  0  0
  -28.5609   -5.9396    0.0000 C   0  0  0  0  0  0  0  0  0  0  0  0
  -27.2627   -5.8714    0.0000 C   0  0  0  0  0  0  0  0  0  0  0  0
  -26.5644   -6.2617    0.0000 C   0  0  0  0  0  0  0  0  0  0  0  0
  -26.5532   -7.0616    0.0000 C   0  0  0  0  0  0  0  0  0  0  0  0
  -27.2403   -7.4713    0.0000 C   0  0  0  0  0  0  0  0  0  0  0  0
  -24.6327   -8.1348    0.0000 O   0  0  0  0  0  0  0  0  0  0  0  0
  -24.2339   -1.2146    0.0000 S   0  0  0  0  0  0  0  0  0  0  0  0
  -22.2790   -2.9258    0.0000 N   0  0  0  0  0  0  0  0  0  0  0  0
  -21.2910   -1.7971    0.0000 C   0  0  0  0  0  0  0  0  0  0  0  0
  -19.8195   -2.0884    0.0000 C   0  0  0  0  0  0  0  0  0  0  0  0
  -18.8316   -0.9598    0.0000 C   0  0  0  0  0  0  0  0  0  0  0  0
  -19.3150    0.4602    0.0000 O   0  0  0  0  0  0  0  0  0  0  0  0
  -17.3601   -1.2510    0.0000 N   0  0  0  0  0  0  0  0  0  0  0  0
  -16.3721   -0.1224    0.0000 C   0  0  0  0  0  0  0  0  0  0  0  0
  -15.8298    1.2761    0.0000 C   0  0  0  0  0  0  0  0  0  0  0  0
  -14.9007   -0.4137    0.0000 C   0  0  0  0  0  0  0  0  0  0  0  0
  -14.5939   -1.8820    0.0000 O   0  0  0  0  0  0  0  0  0  0  0  0
  -13.9127    0.7150    0.0000 N   0  0  0  0  0  0  0  0  0  0  0  0
  -12.4413    0.4237    0.0000 C   0  0  0  0  0  0  0  0  0  0  0  0
  -11.6860   -0.8723    0.0000 C   0  0  0  0  0  0  0  0  0  0  0  0
  -10.5823   -1.8881    0.0000 C   0  0  0  0  0  0  0  0  0  0  0  0
   -9.2283   -2.5335    0.0000 C   0  0  0  0  0  0  0  0  0  0  0  0
   -7.7441   -2.7510    0.0000 C   0  0  0  0  0  0  0  0  0  0  0  0
  -13.4543   -0.6825    0.0000 C   0  0  0  0  0  0  0  0  0  0  0  0
  -12.7809    1.8848    0.0000 C   0  0  0  0  0  0  0  0  0  0  0  0
  -14.2604    2.1320    0.0000 O   0  0  0  0  0  0  0  0  0  0  0  0
  -12.6749    3.3810    0.0000 N   0  0  0  0  0  0  0  0  0  0  0  0
  -12.1325    4.7795    0.0000 C   0  0  0  0  0  0  0  0  0  0  0  0
  -12.8222    6.1115    0.0000 C   0  0  0  0  0  0  0  0  0  0  0  0
  -13.0147    7.5991    0.0000 O   0  0  0  0  0  0  0  0  0  0  0  0
  -14.3206    6.1803    0.0000 C   0  0  0  0  0  0  0  0  0  0  0  0
  -11.2020    5.9560    0.0000 C   0  0  0  0  0  0  0  0  0  0  0  0
  -12.2267    7.0515    0.0000 O   0  0  0  0  0  0  0  0  0  0  0  0
   -9.9661    6.8060    0.0000 N   0  0  0  0  0  0  0  0  0  0  0  0
   -8.5345    7.2539    0.0000 C   0  0  0  0  0  0  0  0  0  0  0  0
   -7.9231    8.6236    0.0000 C   0  0  0  0  0  0  0  0  0  0  0  0
   -8.8036    9.8380    0.0000 C   0  0  0  0  0  0  0  0  0  0  0  0
   -8.1922   11.2077    0.0000 C   0  0  0  0  0  0  0  0  0  0  0  0
  -10.0464   10.6780    0.0000 C   0  0  0  0  0  0  0  0  0  0  0  0
   -7.0345    7.2600    0.0000 C   0  0  0  0  0  0  0  0  0  0  0  0
   -6.8169    8.7441    0.0000 O   0  0  0  0  0  0  0  0  0  0  0  0
   -5.5994    6.8236    0.0000 N   0  0  0  0  0  0  0  0  0  0  0  0
   -4.3566    5.9836    0.0000 C   0  0  0  0  0  0  0  0  0  0  0  0
   -2.9045    6.3596    0.0000 C   0  0  0  0  0  0  0  0  0  0  0  0
   -2.5041    7.8052    0.0000 C   0  0  0  0  0  0  0  0  0  0  0  0
   -1.0520    8.1812    0.0000 C   0  0  0  0  0  0  0  0  0  0  0  0
   -0.6515    9.6268    0.0000 C   0  0  0  0  0  0  0  0  0  0  0  0
   -1.7032   10.6963    0.0000 C   0  0  0  0  0  0  0  0  0  0  0  0
   -3.1553   10.3203    0.0000 C   0  0  0  0  0  0  0  0  0  0  0  0
   -3.5558    8.8748    0.0000 C   0  0  0  0  0  0  0  0  0  0  0  0
   -3.4167    4.8147    0.0000 C   0  0  0  0  0  0  0  0  0  0  0  0
   -2.1207    5.5699    0.0000 O   0  0  0  0  0  0  0  0  0  0  0  0
   -2.8630    3.4206    0.0000 N   0  0  0  0  0  0  0  0  0  0  0  0
   -2.7449    1.9252    0.0000 C   0  0  0  0  0  0  0  0  0  0  0  0
   -3.0728    0.4615    0.0000 C   0  0  0  0  0  0  0  0  0  0  0  0
   -3.8175   -0.8405    0.0000 C   0  0  0  0  0  0  0  0  0  0  0  0
   -4.9130   -1.8652    0.0000 C   0  0  0  0  0  0  0  0  0  0  0  0
   -6.2618   -2.5215    0.0000 C   0  0  0  0  0  0  0  0  0  0  0  0
   -1.4305    2.6479    0.0000 C   0  0  0  0  0  0  0  0  0  0  0  0
   -1.5456    1.0244    0.0000 C   0  0  0  0  0  0  0  0  0  0  0  0
   -1.3604   -0.4642    0.0000 O   0  0  0  0  0  0  0  0  0  0  0  0
   -0.1657    1.6126    0.0000 N   0  0  0  0  0  0  0  0  0  0  0  0
    1.0336    0.7117    0.0000 C   0  0  0  0  0  0  0  0  0  0  0  0
    1.8525   -0.5450    0.0000 C   0  0  0  0  0  0  0  0  0  0  0  0
    2.9331   -1.5854    0.0000 O   0  0  0  0  0  0  0  0  0  0  0  0
    1.1736   -1.8826    0.0000 C   0  0  0  0  0  0  0  0  0  0  0  0
    2.4135    1.2999    0.0000 C   0  0  0  0  0  0  0  0  0  0  0  0
    2.5940    2.7890    0.0000 O   0  0  0  0  0  0  0  0  0  0  0  0
    3.6128    0.3991    0.0000 N   0  0  0  0  0  0  0  0  0  0  0  0
    4.9927    0.9873    0.0000 C   0  0  0  0  0  0  0  0  0  0  0  0
    6.0881    2.0120    0.0000 C   0  0  0  0  0  0  0  0  0  0  0  0
    7.5233    1.5756    0.0000 C   0  0  0  0  0  0  0  0  0  0  0  0
    7.8629    0.1146    0.0000 C   0  0  0  0  0  0  0  0  0  0  0  0
    9.2981   -0.3218    0.0000 C   0  0  0  0  0  0  0  0  0  0  0  0
   10.3935    0.7029    0.0000 C   0  0  0  0  0  0  0  0  0  0  0  0
   10.0539    2.1640    0.0000 C   0  0  0  0  0  0  0  0  0  0  0  0
    8.6187    2.6003    0.0000 C   0  0  0  0  0  0  0  0  0  0  0  0
    6.1920    0.0864    0.0000 C   0  0  0  0  0  0  0  0  0  0  0  0
    5.6566   -1.3148    0.0000 O   0  0  0  0  0  0  0  0  0  0  0  0
    7.5719    0.6746    0.0000 N   0  0  0  0  0  0  0  0  0  0  0  0
    8.7712   -0.2262    0.0000 C   0  0  0  0  0  0  0  0  0  0  0  0
    9.5901   -1.4830    0.0000 C   0  0  0  0  0  0  0  0  0  0  0  0
    8.9112   -2.8206    0.0000 C   0  0  0  0  0  0  0  0  0  0  0  0
    7.4134   -2.9014    0.0000 C   0  0  0  0  0  0  0  0  0  0  0  0
    6.7344   -4.2389    0.0000 C   0  0  0  0  0  0  0  0  0  0  0  0
    7.5533   -5.4957    0.0000 C   0  0  0  0  0  0  0  0  0  0  0  0
    6.8744   -6.8332    0.0000 O   0  0  0  0  0  0  0  0  0  0  0  0
    9.0512   -5.4149    0.0000 C   0  0  0  0  0  0  0  0  0  0  0  0
    9.7301   -4.0773    0.0000 C   0  0  0  0  0  0  0  0  0  0  0  0
   10.1511    0.3620    0.0000 C   0  0  0  0  0  0  0  0  0  0  0  0
   10.6865    1.7631    0.0000 O   0  0  0  0  0  0  0  0  0  0  0  0
   11.3504   -0.5389    0.0000 N   0  0  0  0  0  0  0  0  0  0  0  0
   12.7303    0.0493    0.0000 C   0  0  0  0  0  0  0  0  0  0  0  0
   13.8257    1.0740    0.0000 C   0  0  0  0  0  0  0  0  0  0  0  0
   15.2609    0.6377    0.0000 C   0  0  0  0  0  0  0  0  0  0  0  0
   16.3563    1.6623    0.0000 C   0  0  0  0  0  0  0  0  0  0  0  0
   16.4602   -0.2632    0.0000 C   0  0  0  0  0  0  0  0  0  0  0  0
   13.9296   -0.8516    0.0000 C   0  0  0  0  0  0  0  0  0  0  0  0
   13.7491   -2.3407    0.0000 O   0  0  0  0  0  0  0  0  0  0  0  0
   15.3095   -0.2633    0.0000 N   0  0  0  0  0  0  0  0  0  0  0  0
   16.5088   -1.1642    0.0000 C   0  0  0  0  0  0  0  0  0  0  0  0
   17.8887   -0.5760    0.0000 C   0  0  0  0  0  0  0  0  0  0  0  0
   18.2493    0.8800    0.0000 O   0  0  0  0  0  0  0  0  0  0  0  0
   19.0880   -1.4769    0.0000 N   0  0  0  0  0  0  0  0  0  0  0  0
   20.4679   -0.8886    0.0000 C   0  0  0  0  0  0  0  0  0  0  0  0
   21.6672   -1.7895    0.0000 C   0  0  0  0  0  0  0  0  0  0  0  0
   21.4867   -3.2786    0.0000 O   0  0  0  0  0  0  0  0  0  0  0  0
   23.0471   -1.2013    0.0000 N   0  0  0  0  0  0  0  0  0  0  0  0
   24.2464   -2.1022    0.0000 C   0  0  0  0  0  0  0  0  0  0  0  0
   25.0653   -3.3589    0.0000 C   0  0  0  0  0  0  0  0  0  0  0  0
   24.3864   -4.6965    0.0000 C   0  0  0  0  0  0  0  0  0  0  0  0
   25.2053   -5.9532    0.0000 C   0  0  0  0  0  0  0  0  0  0  0  0
   23.2909   -5.7212    0.0000 C   0  0  0  0  0  0  0  0  0  0  0  0
   25.6262   -1.5139    0.0000 C   0  0  0  0  0  0  0  0  0  0  0  0
   25.8068   -0.0248    0.0000 O   0  0  0  0  0  0  0  0  0  0  0  0
   26.8256   -2.4148    0.0000 N   0  0  0  0  0  0  0  0  0  0  0  0
   28.2054   -1.8266    0.0000 C   0  0  0  0  0  0  0  0  0  0  0  0
   29.3009   -0.8019    0.0000 C   0  0  0  0  0  0  0  0  0  0  0  0
   30.7360   -1.2383    0.0000 C   0  0  0  0  0  0  0  0  0  0  0  0
   31.8315   -0.2136    0.0000 C   0  0  0  0  0  0  0  0  0  0  0  0
   31.9354   -2.1391    0.0000 C   0  0  0  0  0  0  0  0  0  0  0  0
   29.4048   -2.7275    0.0000 C   0  0  0  0  0  0  0  0  0  0  0  0
   29.2243   -4.2166    0.0000 O   0  0  0  0  0  0  0  0  0  0  0  0
   30.7846   -2.1392    0.0000 N   0  0  0  0  0  0  0  0  0  0  0  0
   31.9840   -3.0401    0.0000 C   0  0  0  0  0  0  0  0  0  0  0  0
   33.3638   -2.4519    0.0000 C   0  0  0  0  0  0  0  0  0  0  0  0
   34.5632   -3.3528    0.0000 O   0  0  0  0  0  0  0  0  0  0  0  0
   33.7245   -0.9959    0.0000 O   0  0  0  0  0  0  0  0  0  0  0  0
  -24.0855   -5.1136    0.0000 H   0  0  0  0  0  0  0  0  0  0  0  0
  -25.7053   -0.9233    0.0000 H   0  0  0  0  0  0  0  0  0  0  0  0
  -28.6482   -0.3407    0.0000 H   0  0  0  0  0  0  0  0  0  0  0  0
  -26.3851   -5.8613    0.0000 H   0  0  0  0  0  0  0  0  0  0  0  0
  -32.4051   -9.7438    0.0000 H   0  0  0  0  0  0  0  0  0  0  0  0
  -35.0660   -5.2806    0.0000 H   0  0  0  0  0  0  0  0  0  0  0  0
  -32.4892   -3.7444    0.0000 H   0  0  0  0  0  0  0  0  0  0  0  0
  -36.3334   -7.5486    0.0000 H   0  0  0  0  0  0  0  0  0  0  0  0
  -27.2935   -3.6716    0.0000 H   0  0  0  0  0  0  0  0  0  0  0  0
  -24.5907   -5.2979    0.0000 H   0  0  0  0  0  0  0  0  0  0  0  0
  -27.2095   -9.6710    0.0000 H   0  0  0  0  0  0  0  0  0  0  0  0
  -24.6117   -9.6346    0.0000 H   0  0  0  0  0  0  0  0  0  0  0  0
  -21.7955   -4.3458    0.0000 H   0  0  0  0  0  0  0  0  0  0  0  0
  -20.7486   -0.3986    0.0000 H   0  0  0  0  0  0  0  0  0  0  0  0
  -22.5741   -1.0202    0.0000 H   0  0  0  0  0  0  0  0  0  0  0  0
  -18.5365   -2.8654    0.0000 H   0  0  0  0  0  0  0  0  0  0  0  0
  -20.3619   -3.4869    0.0000 H   0  0  0  0  0  0  0  0  0  0  0  0
  -16.8767   -2.6710    0.0000 H   0  0  0  0  0  0  0  0  0  0  0  0
  -17.6552    0.6546    0.0000 H   0  0  0  0  0  0  0  0  0  0  0  0
  -14.6288    2.1749    0.0000 H   0  0  0  0  0  0  0  0  0  0  0  0
  -15.7984    2.7758    0.0000 H   0  0  0  0  0  0  0  0  0  0  0  0
  -17.3012    1.5674    0.0000 H   0  0  0  0  0  0  0  0  0  0  0  0
  -14.3962    2.1350    0.0000 H   0  0  0  0  0  0  0  0  0  0  0  0
  -13.1479   -1.2084    0.0000 H   0  0  0  0  0  0  0  0  0  0  0  0
  -12.1580   -2.2961    0.0000 H   0  0  0  0  0  0  0  0  0  0  0  0
  -11.7789   -2.7927    0.0000 H   0  0  0  0  0  0  0  0  0  0  0  0
  -10.7963   -3.3728    0.0000 H   0  0  0  0  0  0  0  0  0  0  0  0
  -10.2468   -3.6346    0.0000 H   0  0  0  0  0  0  0  0  0  0  0  0
   -8.8162   -3.9758    0.0000 H   0  0  0  0  0  0  0  0  0  0  0  0
   -7.7381   -4.2510    0.0000 H   0  0  0  0  0  0  0  0  0  0  0  0
  -13.0704   -2.3036    0.0000 H   0  0  0  0  0  0  0  0  0  0  0  0
  -14.4221   -1.7738    0.0000 H   0  0  0  0  0  0  0  0  0  0  0  0
  -14.5675    0.0235    0.0000 H   0  0  0  0  0  0  0  0  0  0  0  0
  -14.1386    3.7089    0.0000 H   0  0  0  0  0  0  0  0  0  0  0  0
  -13.6093    4.5167    0.0000 H   0  0  0  0  0  0  0  0  0  0  0  0
  -11.5416    6.8925    0.0000 H   0  0  0  0  0  0  0  0  0  0  0  0
  -14.3186    8.3407    0.0000 H   0  0  0  0  0  0  0  0  0  0  0  0
  -15.1675    7.4183    0.0000 H   0  0  0  0  0  0  0  0  0  0  0  0
  -15.7522    5.7324    0.0000 H   0  0  0  0  0  0  0  0  0  0  0  0
  -14.3109    4.6803    0.0000 H   0  0  0  0  0  0  0  0  0  0  0  0
  -10.6223    8.1548    0.0000 H   0  0  0  0  0  0  0  0  0  0  0  0
   -9.6607    8.2447    0.0000 H   0  0  0  0  0  0  0  0  0  0  0  0
   -6.7564    9.5665    0.0000 H   0  0  0  0  0  0  0  0  0  0  0  0
   -6.5140    8.1093    0.0000 H   0  0  0  0  0  0  0  0  0  0  0  0
   -9.9703    8.8952    0.0000 H   0  0  0  0  0  0  0  0  0  0  0  0
   -8.9181   12.5204    0.0000 H   0  0  0  0  0  0  0  0  0  0  0  0
   -7.1492   12.2858    0.0000 H   0  0  0  0  0  0  0  0  0  0  0  0
   -6.8563   10.5255    0.0000 H   0  0  0  0  0  0  0  0  0  0  0  0
  -10.1235   12.1760    0.0000 H   0  0  0  0  0  0  0  0  0  0  0  0
  -11.5015   11.0422    0.0000 H   0  0  0  0  0  0  0  0  0  0  0  0
  -10.6578    9.3082    0.0000 H   0  0  0  0  0  0  0  0  0  0  0  0
   -5.1239    8.2462    0.0000 H   0  0  0  0  0  0  0  0  0  0  0  0
   -4.1021    7.4619    0.0000 H   0  0  0  0  0  0  0  0  0  0  0  0
   -1.4114    6.2163    0.0000 H   0  0  0  0  0  0  0  0  0  0  0  0
   -2.4281    4.9373    0.0000 H   0  0  0  0  0  0  0  0  0  0  0  0
   -0.0003    7.1116    0.0000 H   0  0  0  0  0  0  0  0  0  0  0  0
    0.8006   10.0028    0.0000 H   0  0  0  0  0  0  0  0  0  0  0  0
   -1.3028   12.1419    0.0000 H   0  0  0  0  0  0  0  0  0  0  0  0
   -4.2070   11.3899    0.0000 H   0  0  0  0  0  0  0  0  0  0  0  0
   -5.0429    8.6786    0.0000 H   0  0  0  0  0  0  0  0  0  0  0  0
   -1.4020    3.7603    0.0000 H   0  0  0  0  0  0  0  0  0  0  0  0
   -2.1923   -0.7529    0.0000 H   0  0  0  0  0  0  0  0  0  0  0  0
   -1.5740    0.4002    0.0000 H   0  0  0  0  0  0  0  0  0  0  0  0
   -3.1646   -2.1910    0.0000 H   0  0  0  0  0  0  0  0  0  0  0  0
   -2.4035   -1.3409    0.0000 H   0  0  0  0  0  0  0  0  0  0  0  0
   -4.8695   -3.3646    0.0000 H   0  0  0  0  0  0  0  0  0  0  0  0
   -3.6091   -2.6068    0.0000 H   0  0  0  0  0  0  0  0  0  0  0  0
   -5.8139   -3.9531    0.0000 H   0  0  0  0  0  0  0  0  0  0  0  0
    0.0025    2.2045    0.0000 H   0  0  0  0  0  0  0  0  0  0  0  0
   -0.5874    3.8886    0.0000 H   0  0  0  0  0  0  0  0  0  0  0  0
   -2.0596    4.0096    0.0000 H   0  0  0  0  0  0  0  0  0  0  0  0
    0.1950    3.0686    0.0000 H   0  0  0  0  0  0  0  0  0  0  0  0
   -0.1786   -0.1718    0.0000 H   0  0  0  0  0  0  0  0  0  0  0  0
    3.1634    0.1841    0.0000 H   0  0  0  0  0  0  0  0  0  0  0  0
    3.0542   -2.9459    0.0000 H   0  0  0  0  0  0  0  0  0  0  0  0
    1.8332   -3.2298    0.0000 H   0  0  0  0  0  0  0  0  0  0  0  0
    0.0782   -2.9073    0.0000 H   0  0  0  0  0  0  0  0  0  0  0  0
   -0.1266   -1.1346    0.0000 H   0  0  0  0  0  0  0  0  0  0  0  0
    3.6152   -1.1009    0.0000 H   0  0  0  0  0  0  0  0  0  0  0  0
    4.1738    2.2440    0.0000 H   0  0  0  0  0  0  0  0  0  0  0  0
    6.7671    3.3495    0.0000 H   0  0  0  0  0  0  0  0  0  0  0  0
    4.8888    2.9128    0.0000 H   0  0  0  0  0  0  0  0  0  0  0  0
    6.7675   -0.9101    0.0000 H   0  0  0  0  0  0  0  0  0  0  0  0
    9.9812   -1.6572    0.0000 H   0  0  0  0  0  0  0  0  0  0  0  0
   11.8287    0.2666    0.0000 H   0  0  0  0  0  0  0  0  0  0  0  0
   11.1493    3.1886    0.0000 H   0  0  0  0  0  0  0  0  0  0  0  0
    8.2790    4.0613    0.0000 H   0  0  0  0  0  0  0  0  0  0  0  0
    8.1073    2.0758    0.0000 H   0  0  0  0  0  0  0  0  0  0  0  0
    7.6758   -1.2509    0.0000 H   0  0  0  0  0  0  0  0  0  0  0  0
   10.6707   -2.5233    0.0000 H   0  0  0  0  0  0  0  0  0  0  0  0
   10.9010   -0.7538    0.0000 H   0  0  0  0  0  0  0  0  0  0  0  0
    6.3147   -1.8801    0.0000 H   0  0  0  0  0  0  0  0  0  0  0  0
    5.2366   -4.3197    0.0000 H   0  0  0  0  0  0  0  0  0  0  0  0
    7.6933   -8.0900    0.0000 H   0  0  0  0  0  0  0  0  0  0  0  0
    9.8701   -6.6716    0.0000 H   0  0  0  0  0  0  0  0  0  0  0  0
   11.2279   -3.9965    0.0000 H   0  0  0  0  0  0  0  0  0  0  0  0
   11.3528   -2.0389    0.0000 H   0  0  0  0  0  0  0  0  0  0  0  0
   11.9114    1.3061    0.0000 H   0  0  0  0  0  0  0  0  0  0  0  0
   14.3365    2.4844    0.0000 H   0  0  0  0  0  0  0  0  0  0  0  0
   12.6264    1.9749    0.0000 H   0  0  0  0  0  0  0  0  0  0  0  0
   15.2895   -0.8621    0.0000 H   0  0  0  0  0  0  0  0  0  0  0  0
   17.8544    1.5862    0.0000 H   0  0  0  0  0  0  0  0  0  0  0  0
   17.0352    2.9999    0.0000 H   0  0  0  0  0  0  0  0  0  0  0  0
   15.2757    2.7027    0.0000 H   0  0  0  0  0  0  0  0  0  0  0  0
   16.6454   -1.7517    0.0000 H   0  0  0  0  0  0  0  0  0  0  0  0
   17.9583   -0.3393    0.0000 H   0  0  0  0  0  0  0  0  0  0  0  0
   17.2971    0.9816    0.0000 H   0  0  0  0  0  0  0  0  0  0  0  0
   15.8449    1.1378    0.0000 H   0  0  0  0  0  0  0  0  0  0  0  0
   17.3277   -2.4210    0.0000 H   0  0  0  0  0  0  0  0  0  0  0  0
   15.4134   -2.1889    0.0000 H   0  0  0  0  0  0  0  0  0  0  0  0
   18.9075   -2.9660    0.0000 H   0  0  0  0  0  0  0  0  0  0  0  0
   21.5633    0.1361    0.0000 H   0  0  0  0  0  0  0  0  0  0  0  0
   19.6490    0.3681    0.0000 H   0  0  0  0  0  0  0  0  0  0  0  0
   23.2276    0.2878    0.0000 H   0  0  0  0  0  0  0  0  0  0  0  0
   23.0342   -2.9857    0.0000 H   0  0  0  0  0  0  0  0  0  0  0  0
   26.2646   -4.2598    0.0000 H   0  0  0  0  0  0  0  0  0  0  0  0
   26.3761   -2.6297    0.0000 H   0  0  0  0  0  0  0  0  0  0  0  0
   23.0862   -3.9485    0.0000 H   0  0  0  0  0  0  0  0  0  0  0  0
   24.6944   -7.3636    0.0000 H   0  0  0  0  0  0  0  0  0  0  0  0
   26.4046   -6.8541    0.0000 H   0  0  0  0  0  0  0  0  0  0  0  0
   26.4175   -5.0697    0.0000 H   0  0  0  0  0  0  0  0  0  0  0  0
   23.4500   -7.2127    0.0000 H   0  0  0  0  0  0  0  0  0  0  0  0
   21.9111   -6.3094    0.0000 H   0  0  0  0  0  0  0  0  0  0  0  0
   22.4720   -4.4644    0.0000 H   0  0  0  0  0  0  0  0  0  0  0  0
   26.8279   -3.9148    0.0000 H   0  0  0  0  0  0  0  0  0  0  0  0
   27.3865   -0.5698    0.0000 H   0  0  0  0  0  0  0  0  0  0  0  0
   29.8117    0.6084    0.0000 H   0  0  0  0  0  0  0  0  0  0  0  0
   28.1016    0.0990    0.0000 H   0  0  0  0  0  0  0  0  0  0  0  0
   30.7647   -2.7380    0.0000 H   0  0  0  0  0  0  0  0  0  0  0  0
   33.3295   -0.2897    0.0000 H   0  0  0  0  0  0  0  0  0  0  0  0
   32.5104    1.1240    0.0000 H   0  0  0  0  0  0  0  0  0  0  0  0
   30.7509    0.8268    0.0000 H   0  0  0  0  0  0  0  0  0  0  0  0
   32.1205   -3.6277    0.0000 H   0  0  0  0  0  0  0  0  0  0  0  0
   33.4334   -2.2152    0.0000 H   0  0  0  0  0  0  0  0  0  0  0  0
   32.7723   -0.8943    0.0000 H   0  0  0  0  0  0  0  0  0  0  0  0
   31.3201   -0.7381    0.0000 H   0  0  0  0  0  0  0  0  0  0  0  0
   32.8029   -4.2969    0.0000 H   0  0  0  0  0  0  0  0  0  0  0  0
   30.8885   -4.0648    0.0000 H   0  0  0  0  0  0  0  0  0  0  0  0
   34.9242   -0.3746    0.0000 H   0  0  0  0  0  0  0  0  0  0  0  0
  1  2  1  0
  2  3  1  0
  3  4  2  0
  4  5  1  0
  5  6  2  0
  6  7  1  0
  7  8  2  0
  7  9  1  0
  9 10  1  0
 10 11  1  0
 11 12  2  0
  9 13  1  0
 13 14  1  0
 14 15  2  0
 15 16  1  0
 16 17  2  0
 17 18  1  0
 16 19  1  0
 14 20  1  0
 20 21  1  0
 21 22  2  0
 22 23  1  0
 23 24  2  0
 24 25  1  0
 25 26  2  0
 25 27  1  0
  1 28  2  0
  1 29  1  0
 29 30  1  0
 30 31  1  0
 31 32  1  0
 32 33  2  0
 32 34  1  0
 34 35  1  0
 35 36  1  0
 35 37  1  0
 37 38  2  0
 37 39  1  0
 40 39  1  6
 40 41  1  0
 41 42  1  0
 42 43  1  0
 43 44  1  0
 40 45  1  0
 40 46  1  0
 46 47  2  0
 46 48  1  0
 48 49  1  0
 49 50  1  0
 50 51  1  0
 50 52  1  0
 49 53  1  0
 53 54  2  0
 53 55  1  0
 55 56  1  0
 56 57  1  0
 57 58  1  0
 58 59  1  0
 58 60  1  0
 56 61  1  0
 61 62  2  0
 61 63  1  0
 63 64  1  0
 64 65  1  0
 65 66  1  0
 66 67  2  0
 67 68  1  0
 68 69  2  0
 69 70  1  0
 70 71  2  0
 64 72  1  0
 72 73  2  0
 72 74  1  0
 74 75  1  0
 75 76  1  0
 76 77  1  0
 77 78  1  0
 78 79  1  0
 75 80  1  0
 75 81  1  6
 81 82  2  0
 81 83  1  0
 83 84  1  0
 84 85  1  0
 85 86  1  0
 85 87  1  0
 84 88  1  0
 88 89  2  0
 88 90  1  0
 90 91  1  0
 91 92  1  0
 92 93  1  0
 93 94  2  0
 94 95  1  0
 95 96  2  0
 96 97  1  0
 97 98  2  0
 91 99  1  0
 99100  2  0
 99101  1  0
101102  1  0
102103  1  0
103104  1  0
104105  2  0
105106  1  0
106107  2  0
107108  1  0
107109  1  0
109110  2  0
102111  1  0
111112  2  0
111113  1  0
113114  1  0
114115  1  0
115116  1  0
116117  1  0
116118  1  0
114119  1  0
119120  2  0
119121  1  0
121122  1  0
122123  1  0
123124  2  0
123125  1  0
125126  1  0
126127  1  0
127128  2  0
127129  1  0
129130  1  0
130131  1  0
131132  1  0
132133  1  0
132134  1  0
130135  1  0
135136  2  0
135137  1  0
137138  1  0
138139  1  0
139140  1  0
140141  1  0
140142  1  0
138143  1  0
143144  2  0
143145  1  0
145146  1  0
146147  1  0
147148  2  0
147149  1  0
  8  3  1  0
 71 66  1  0
 98 93  1  0
110104  1  0
 11  6  1  0
 44 79  2  0
 18 13  2  0
 22  9  1  0
 26 21  1  0
  2150  1  0
  4151  1  0
  5152  1  0
  8153  1  0
 15154  1  0
 17155  1  0
 18156  1  0
 19157  1  0
 23158  1  0
 24159  1  0
 26160  1  0
 27161  1  0
 29162  1  0
 30163  1  0
 30164  1  0
 31165  1  0
 31166  1  0
 34167  1  0
 35168  1  1
 36169  1  0
 36170  1  0
 36171  1  0
 39172  1  0
 41173  1  0
 41174  1  0
 42175  1  0
 42176  1  0
 43177  1  0
 43178  1  0
 44179  1  0
 45180  1  0
 45181  1  0
 45182  1  0
 48183  1  0
 49184  1  1
 50185  1  6
 51186  1  0
 52187  1  0
 52188  1  0
 52189  1  0
 55190  1  0
 56191  1  1
 57192  1  0
 57193  1  0
 58194  1  0
 59195  1  0
 59196  1  0
 59197  1  0
 60198  1  0
 60199  1  0
 60200  1  0
 63201  1  0
 64202  1  1
 65203  1  0
 65204  1  0
 67205  1  0
 68206  1  0
 69207  1  0
 70208  1  0
 71209  1  0
 74210  1  0
 76211  1  0
 76212  1  0
 77213  1  0
 77214  1  0
 78215  1  0
 78216  1  0
 79217  1  0
 80218  1  0
 80219  1  0
 80220  1  0
 83221  1  0
 84222  1  6
 85223  1  1
 86224  1  0
 87225  1  0
 87226  1  0
 87227  1  0
 90228  1  0
 91229  1  1
 92230  1  0
 92231  1  0
 94232  1  0
 95233  1  0
 96234  1  0
 97235  1  0
 98236  1  0
101237  1  0
102238  1  6
103239  1  0
103240  1  0
105241  1  0
106242  1  0
108243  1  0
109244  1  0
110245  1  0
113246  1  0
114247  1  1
115248  1  0
115249  1  0
116250  1  0
117251  1  0
117252  1  0
117253  1  0
118254  1  0
118255  1  0
118256  1  0
121257  1  0
122258  1  0
122259  1  0
125260  1  0
126261  1  0
126262  1  0
129263  1  0
130264  1  6
131265  1  0
131266  1  0
132267  1  0
133268  1  0
133269  1  0
133270  1  0
134271  1  0
134272  1  0
134273  1  0
137274  1  0
138275  1  1
139276  1  0
139277  1  0
140278  1  0
141279  1  0
141280  1  0
141281  1  0
142282  1  0
142283  1  0
142284  1  0
145285  1  0
146286  1  0
146287  1  0
149288  1  0
M  END
