
     RDKit          2D

314316  0  0  0  0  0  0  0  0999 V2000
  -25.7606   -3.2329    0.0000 N   0  0  0  0  0  0  0  0  0  0  0  0
  -24.2795   -2.9959    0.0000 C   0  0  0  0  0  0  0  0  0  0  0  0
  -23.3337   -4.1602    0.0000 C   0  0  0  0  0  0  0  0  0  0  0  0
  -21.8525   -3.9233    0.0000 C   0  0  0  0  0  0  0  0  0  0  0  0
  -21.3171   -2.5221    0.0000 O   0  0  0  0  0  0  0  0  0  0  0  0
  -20.9068   -5.0876    0.0000 N   0  0  0  0  0  0  0  0  0  0  0  0
  -19.4256   -4.8506    0.0000 C   0  0  0  0  0  0  0  0  0  0  0  0
  -19.4495   -6.3505    0.0000 C   0  0  0  0  0  0  0  0  0  0  0  0
  -20.7603   -7.0797    0.0000 C   0  0  0  0  0  0  0  0  0  0  0  0
  -20.7842   -8.5795    0.0000 C   0  0  0  0  0  0  0  0  0  0  0  0
  -22.0950   -9.3087    0.0000 O   0  0  0  0  0  0  0  0  0  0  0  0
  -19.4973   -9.3501    0.0000 O   0  0  0  0  0  0  0  0  0  0  0  0
  -18.1148   -4.1214    0.0000 C   0  0  0  0  0  0  0  0  0  0  0  0
  -16.9314   -5.0431    0.0000 O   0  0  0  0  0  0  0  0  0  0  0  0
  -18.0909   -2.6216    0.0000 N   0  0  0  0  0  0  0  0  0  0  0  0
  -16.7801   -1.8924    0.0000 C   0  0  0  0  0  0  0  0  0  0  0  0
  -16.2896   -3.3099    0.0000 C   0  0  0  0  0  0  0  0  0  0  0  0
  -14.8167   -3.5939    0.0000 C   0  0  0  0  0  0  0  0  0  0  0  0
  -14.3262   -5.0114    0.0000 C   0  0  0  0  0  0  0  0  0  0  0  0
  -12.8533   -5.2954    0.0000 N   0  0  0  0  0  0  0  0  0  0  0  0
  -12.3628   -6.7129    0.0000 C   0  0  0  0  0  0  0  0  0  0  0  0
  -10.8899   -6.9969    0.0000 N   0  0  0  0  0  0  0  0  0  0  0  0
  -13.3451   -7.8465    0.0000 N   0  0  0  0  0  0  0  0  0  0  0  0
  -15.7977   -0.7588    0.0000 C   0  0  0  0  0  0  0  0  0  0  0  0
  -14.3249   -1.0428    0.0000 O   0  0  0  0  0  0  0  0  0  0  0  0
  -16.2883    0.6587    0.0000 N   0  0  0  0  0  0  0  0  0  0  0  0
  -15.3059    1.7923    0.0000 C   0  0  0  0  0  0  0  0  0  0  0  0
  -16.5928    2.5629    0.0000 C   0  0  0  0  0  0  0  0  0  0  0  0
  -17.9036    1.8336    0.0000 C   0  0  0  0  0  0  0  0  0  0  0  0
  -19.1906    2.6042    0.0000 C   0  0  0  0  0  0  0  0  0  0  0  0
  -18.8860    0.7001    0.0000 C   0  0  0  0  0  0  0  0  0  0  0  0
  -13.9951    2.5215    0.0000 C   0  0  0  0  0  0  0  0  0  0  0  0
  -14.1756    3.2979    0.0000 O   0  0  0  0  0  0  0  0  0  0  0  0
  -12.7081    1.7509    0.0000 N   0  0  0  0  0  0  0  0  0  0  0  0
  -11.3973    2.4801    0.0000 C   0  0  0  0  0  0  0  0  0  0  0  0
  -12.3431    3.6444    0.0000 C   0  0  0  0  0  0  0  0  0  0  0  0
  -13.8243    3.4075    0.0000 C   0  0  0  0  0  0  0  0  0  0  0  0
  -14.7700    4.5718    0.0000 C   0  0  0  0  0  0  0  0  0  0  0  0
  -16.2512    4.3348    0.0000 N   0  0  0  0  0  0  0  0  0  0  0  0
  -17.1970    5.4991    0.0000 C   0  0  0  0  0  0  0  0  0  0  0  0
  -18.6781    5.2622    0.0000 N   0  0  0  0  0  0  0  0  0  0  0  0
  -16.6616    6.9003    0.0000 N   0  0  0  0  0  0  0  0  0  0  0  0
   -9.9162    2.7170    0.0000 C   0  0  0  0  0  0  0  0  0  0  0  0
   -9.7357    4.2061    0.0000 O   0  0  0  0  0  0  0  0  0  0  0  0
   -8.9704    1.5528    0.0000 N   0  0  0  0  0  0  0  0  0  0  0  0
   -7.4892    1.7897    0.0000 C   0  0  0  0  0  0  0  0  0  0  0  0
   -7.9797    3.2072    0.0000 C   0  0  0  0  0  0  0  0  0  0  0  0
   -9.4526    3.4912    0.0000 C   0  0  0  0  0  0  0  0  0  0  0  0
   -9.9431    4.9087    0.0000 C   0  0  0  0  0  0  0  0  0  0  0  0
  -11.4160    5.1927    0.0000 N   0  0  0  0  0  0  0  0  0  0  0  0
  -11.9065    6.6102    0.0000 C   0  0  0  0  0  0  0  0  0  0  0  0
  -13.3794    6.8942    0.0000 N   0  0  0  0  0  0  0  0  0  0  0  0
  -10.9242    7.7438    0.0000 N   0  0  0  0  0  0  0  0  0  0  0  0
   -6.0164    1.5057    0.0000 C   0  0  0  0  0  0  0  0  0  0  0  0
   -5.3375    2.8433    0.0000 O   0  0  0  0  0  0  0  0  0  0  0  0
   -5.5258    0.0882    0.0000 N   0  0  0  0  0  0  0  0  0  0  0  0
   -4.0530   -0.1958    0.0000 C   0  0  0  0  0  0  0  0  0  0  0  0
   -4.0291    1.3040    0.0000 C   0  0  0  0  0  0  0  0  0  0  0  0
   -5.3160    2.0746    0.0000 C   0  0  0  0  0  0  0  0  0  0  0  0
   -5.2921    3.5744    0.0000 C   0  0  0  0  0  0  0  0  0  0  0  0
   -6.5790    4.3450    0.0000 N   0  0  0  0  0  0  0  0  0  0  0  0
   -6.5552    5.8448    0.0000 C   0  0  0  0  0  0  0  0  0  0  0  0
   -7.8421    6.6154    0.0000 N   0  0  0  0  0  0  0  0  0  0  0  0
   -5.2443    6.5741    0.0000 N   0  0  0  0  0  0  0  0  0  0  0  0
   -2.7660   -0.9664    0.0000 C   0  0  0  0  0  0  0  0  0  0  0  0
   -1.4552   -0.2371    0.0000 O   0  0  0  0  0  0  0  0  0  0  0  0
   -2.7899   -2.4662    0.0000 N   0  0  0  0  0  0  0  0  0  0  0  0
   -1.5030   -3.2368    0.0000 C   0  0  0  0  0  0  0  0  0  0  0  0
   -2.4853   -4.3703    0.0000 C   0  0  0  0  0  0  0  0  0  0  0  0
   -3.9126   -3.9089    0.0000 C   0  0  0  0  0  0  0  0  0  0  0  0
   -3.0207   -5.7715    0.0000 C   0  0  0  0  0  0  0  0  0  0  0  0
   -4.5019   -6.0084    0.0000 C   0  0  0  0  0  0  0  0  0  0  0  0
   -0.0301   -3.5207    0.0000 C   0  0  0  0  0  0  0  0  0  0  0  0
    0.2840   -4.9875    0.0000 O   0  0  0  0  0  0  0  0  0  0  0  0
    0.9523   -2.3871    0.0000 N   0  0  0  0  0  0  0  0  0  0  0  0
    2.4251   -2.6711    0.0000 C   0  0  0  0  0  0  0  0  0  0  0  0
    3.1868   -3.9633    0.0000 C   0  0  0  0  0  0  0  0  0  0  0  0
    4.2955   -4.9736    0.0000 C   0  0  0  0  0  0  0  0  0  0  0  0
    5.6528   -5.6123    0.0000 C   0  0  0  0  0  0  0  0  0  0  0  0
    7.1380   -5.8225    0.0000 C   0  0  0  0  0  0  0  0  0  0  0  0
    1.4176   -3.7823    0.0000 C   0  0  0  0  0  0  0  0  0  0  0  0
    2.0782   -1.2118    0.0000 C   0  0  0  0  0  0  0  0  0  0  0  0
    0.5793   -1.1542    0.0000 O   0  0  0  0  0  0  0  0  0  0  0  0
    2.1768    0.2850    0.0000 N   0  0  0  0  0  0  0  0  0  0  0  0
    2.7122    1.6862    0.0000 C   0  0  0  0  0  0  0  0  0  0  0  0
    1.2148    1.5979    0.0000 C   0  0  0  0  0  0  0  0  0  0  0  0
    0.3897    2.8506    0.0000 C   0  0  0  0  0  0  0  0  0  0  0  0
   -1.1077    2.7623    0.0000 C   0  0  0  0  0  0  0  0  0  0  0  0
   -1.9329    4.0150    0.0000 C   0  0  0  0  0  0  0  0  0  0  0  0
    3.6368    2.8673    0.0000 C   0  0  0  0  0  0  0  0  0  0  0  0
    2.6067    3.9576    0.0000 O   0  0  0  0  0  0  0  0  0  0  0  0
    4.8685    3.7234    0.0000 N   0  0  0  0  0  0  0  0  0  0  0  0
    6.2979    4.1784    0.0000 C   0  0  0  0  0  0  0  0  0  0  0  0
    5.2952    5.2941    0.0000 C   0  0  0  0  0  0  0  0  0  0  0  0
    5.7601    6.7203    0.0000 S   0  0  0  0  0  0  0  0  0  0  0  0
    7.7978    4.1920    0.0000 C   0  0  0  0  0  0  0  0  0  0  0  0
    8.0080    5.6772    0.0000 O   0  0  0  0  0  0  0  0  0  0  0  0
    9.2351    3.7628    0.0000 N   0  0  0  0  0  0  0  0  0  0  0  0
   10.4820    2.9290    0.0000 C   0  0  0  0  0  0  0  0  0  0  0  0
   10.7292    4.4085    0.0000 C   0  0  0  0  0  0  0  0  0  0  0  0
   12.1340    4.9342    0.0000 C   0  0  0  0  0  0  0  0  0  0  0  0
   12.3812    6.4137    0.0000 C   0  0  0  0  0  0  0  0  0  0  0  0
   13.7860    6.9394    0.0000 N   0  0  0  0  0  0  0  0  0  0  0  0
   14.0332    8.4189    0.0000 C   0  0  0  0  0  0  0  0  0  0  0  0
   15.4380    8.9446    0.0000 N   0  0  0  0  0  0  0  0  0  0  0  0
   12.8755    9.3727    0.0000 N   0  0  0  0  0  0  0  0  0  0  0  0
   11.4278    1.7647    0.0000 C   0  0  0  0  0  0  0  0  0  0  0  0
   12.7200    2.5264    0.0000 O   0  0  0  0  0  0  0  0  0  0  0  0
   11.9883    0.3734    0.0000 N   0  0  0  0  0  0  0  0  0  0  0  0
   12.1139   -1.1214    0.0000 C   0  0  0  0  0  0  0  0  0  0  0  0
   11.7933   -2.5867    0.0000 C   0  0  0  0  0  0  0  0  0  0  0  0
   11.0550   -3.8924    0.0000 C   0  0  0  0  0  0  0  0  0  0  0  0
    9.9647   -4.9226    0.0000 C   0  0  0  0  0  0  0  0  0  0  0  0
    8.6192   -5.5855    0.0000 C   0  0  0  0  0  0  0  0  0  0  0  0
   13.4178   -1.8628    0.0000 C   0  0  0  0  0  0  0  0  0  0  0  0
   13.4247   -0.3921    0.0000 C   0  0  0  0  0  0  0  0  0  0  0  0
   13.6312    1.0936    0.0000 O   0  0  0  0  0  0  0  0  0  0  0  0
   14.7116   -1.1627    0.0000 N   0  0  0  0  0  0  0  0  0  0  0  0
   16.0225   -0.4335    0.0000 C   0  0  0  0  0  0  0  0  0  0  0  0
   17.0048    0.7001    0.0000 C   0  0  0  0  0  0  0  0  0  0  0  0
   18.4777    0.4161    0.0000 C   0  0  0  0  0  0  0  0  0  0  0  0
   19.5732    1.4408    0.0000 C   0  0  0  0  0  0  0  0  0  0  0  0
   20.8862    0.7156    0.0000 N   0  0  0  0  0  0  0  0  0  0  0  0
   20.6022   -0.7573    0.0000 C   0  0  0  0  0  0  0  0  0  0  0  0
   19.1137   -0.9424    0.0000 N   0  0  0  0  0  0  0  0  0  0  0  0
   17.3094   -1.2041    0.0000 C   0  0  0  0  0  0  0  0  0  0  0  0
   17.2855   -2.7039    0.0000 O   0  0  0  0  0  0  0  0  0  0  0  0
   18.6202   -0.4749    0.0000 N   0  0  0  0  0  0  0  0  0  0  0  0
   19.9071   -1.2455    0.0000 C   0  0  0  0  0  0  0  0  0  0  0  0
   20.8529   -2.4097    0.0000 C   0  0  0  0  0  0  0  0  0  0  0  0
   20.3175   -3.8109    0.0000 C   0  0  0  0  0  0  0  0  0  0  0  0
   21.1364   -5.0677    0.0000 C   0  0  0  0  0  0  0  0  0  0  0  0
   20.1942   -6.2348    0.0000 N   0  0  0  0  0  0  0  0  0  0  0  0
   18.7930   -5.6994    0.0000 C   0  0  0  0  0  0  0  0  0  0  0  0
   18.8692   -4.2014    0.0000 N   0  0  0  0  0  0  0  0  0  0  0  0
   21.2180   -0.5162    0.0000 C   0  0  0  0  0  0  0  0  0  0  0  0
   21.6040    0.9332    0.0000 O   0  0  0  0  0  0  0  0  0  0  0  0
   22.5049   -1.2868    0.0000 N   0  0  0  0  0  0  0  0  0  0  0  0
   23.8157   -0.5576    0.0000 C   0  0  0  0  0  0  0  0  0  0  0  0
   24.7981    0.5760    0.0000 C   0  0  0  0  0  0  0  0  0  0  0  0
   26.2749    0.8388    0.0000 O   0  0  0  0  0  0  0  0  0  0  0  0
   25.1026   -1.3282    0.0000 C   0  0  0  0  0  0  0  0  0  0  0  0
   25.0788   -2.8280    0.0000 O   0  0  0  0  0  0  0  0  0  0  0  0
   26.4135   -0.5990    0.0000 N   0  0  0  0  0  0  0  0  0  0  0  0
   27.7004   -1.3696    0.0000 C   0  0  0  0  0  0  0  0  0  0  0  0
   28.6461   -2.5338    0.0000 C   0  0  0  0  0  0  0  0  0  0  0  0
   29.9331   -3.3044    0.0000 O   0  0  0  0  0  0  0  0  0  0  0  0
   28.1107   -3.9350    0.0000 C   0  0  0  0  0  0  0  0  0  0  0  0
   29.0112   -0.6403    0.0000 C   0  0  0  0  0  0  0  0  0  0  0  0
   30.3825   -1.2483    0.0000 O   0  0  0  0  0  0  0  0  0  0  0  0
   29.0351    0.8595    0.0000 O   0  0  0  0  0  0  0  0  0  0  0  0
  -26.7064   -2.0686    0.0000 H   0  0  0  0  0  0  0  0  0  0  0  0
  -26.2961   -4.6340    0.0000 H   0  0  0  0  0  0  0  0  0  0  0  0
  -24.7700   -1.5784    0.0000 H   0  0  0  0  0  0  0  0  0  0  0  0
  -22.9687   -2.2667    0.0000 H   0  0  0  0  0  0  0  0  0  0  0  0
  -24.6445   -4.8894    0.0000 H   0  0  0  0  0  0  0  0  0  0  0  0
  -22.8432   -5.5777    0.0000 H   0  0  0  0  0  0  0  0  0  0  0  0
  -21.6090   -6.4130    0.0000 H   0  0  0  0  0  0  0  0  0  0  0  0
  -19.9161   -3.4331    0.0000 H   0  0  0  0  0  0  0  0  0  0  0  0
  -18.9590   -7.7680    0.0000 H   0  0  0  0  0  0  0  0  0  0  0  0
  -17.9683   -6.1135    0.0000 H   0  0  0  0  0  0  0  0  0  0  0  0
  -22.2415   -7.3166    0.0000 H   0  0  0  0  0  0  0  0  0  0  0  0
  -21.7263   -5.9322    0.0000 H   0  0  0  0  0  0  0  0  0  0  0  0
  -19.3778   -1.8510    0.0000 H   0  0  0  0  0  0  0  0  0  0  0  0
  -17.5769   -0.6215    0.0000 H   0  0  0  0  0  0  0  0  0  0  0  0
  -16.3134   -4.8097    0.0000 H   0  0  0  0  0  0  0  0  0  0  0  0
  -17.6694   -3.8982    0.0000 H   0  0  0  0  0  0  0  0  0  0  0  0
  -13.3355   -3.3570    0.0000 H   0  0  0  0  0  0  0  0  0  0  0  0
  -14.7928   -2.0941    0.0000 H   0  0  0  0  0  0  0  0  0  0  0  0
  -14.3500   -6.5112    0.0000 H   0  0  0  0  0  0  0  0  0  0  0  0
  -15.7674   -5.4271    0.0000 H   0  0  0  0  0  0  0  0  0  0  0  0
  -11.8709   -4.1618    0.0000 H   0  0  0  0  0  0  0  0  0  0  0  0
  -10.3994   -8.4144    0.0000 H   0  0  0  0  0  0  0  0  0  0  0  0
   -9.9075   -5.8633    0.0000 H   0  0  0  0  0  0  0  0  0  0  0  0
  -12.8546   -9.2640    0.0000 H   0  0  0  0  0  0  0  0  0  0  0  0
  -14.8180   -7.5625    0.0000 H   0  0  0  0  0  0  0  0  0  0  0  0
  -17.7848    0.7610    0.0000 H   0  0  0  0  0  0  0  0  0  0  0  0
  -14.3601    0.6280    0.0000 H   0  0  0  0  0  0  0  0  0  0  0  0
  -17.3896    3.8337    0.0000 H   0  0  0  0  0  0  0  0  0  0  0  0
  -15.9140    3.9004    0.0000 H   0  0  0  0  0  0  0  0  0  0  0  0
  -17.4381    0.4077    0.0000 H   0  0  0  0  0  0  0  0  0  0  0  0
  -20.5805    2.0402    0.0000 H   0  0  0  0  0  0  0  0  0  0  0  0
  -20.1363    3.7685    0.0000 H   0  0  0  0  0  0  0  0  0  0  0  0
  -18.3537    3.8491    0.0000 H   0  0  0  0  0  0  0  0  0  0  0  0
  -20.3825    0.8024    0.0000 H   0  0  0  0  0  0  0  0  0  0  0  0
  -19.4214   -0.7011    0.0000 H   0  0  0  0  0  0  0  0  0  0  0  0
  -17.5147    0.0921    0.0000 H   0  0  0  0  0  0  0  0  0  0  0  0
  -12.7320    0.2511    0.0000 H   0  0  0  0  0  0  0  0  0  0  0  0
  -10.9068    1.0626    0.0000 H   0  0  0  0  0  0  0  0  0  0  0  0
  -12.6572    5.1111    0.0000 H   0  0  0  0  0  0  0  0  0  0  0  0
  -11.2477    4.6691    0.0000 H   0  0  0  0  0  0  0  0  0  0  0  0
  -15.1351    2.6783    0.0000 H   0  0  0  0  0  0  0  0  0  0  0  0
  -13.6913    1.9134    0.0000 H   0  0  0  0  0  0  0  0  0  0  0  0
  -15.2606    5.9893    0.0000 H   0  0  0  0  0  0  0  0  0  0  0  0
  -13.5579    5.4553    0.0000 H   0  0  0  0  0  0  0  0  0  0  0  0
  -17.1098    3.1048    0.0000 H   0  0  0  0  0  0  0  0  0  0  0  0
  -19.6239    6.4265    0.0000 H   0  0  0  0  0  0  0  0  0  0  0  0
  -19.2135    3.8610    0.0000 H   0  0  0  0  0  0  0  0  0  0  0  0
  -17.6073    8.0646    0.0000 H   0  0  0  0  0  0  0  0  0  0  0  0
  -15.1804    7.1372    0.0000 H   0  0  0  0  0  0  0  0  0  0  0  0
   -9.5058    0.1516    0.0000 H   0  0  0  0  0  0  0  0  0  0  0  0
   -7.5131    0.2899    0.0000 H   0  0  0  0  0  0  0  0  0  0  0  0
   -7.7732    4.6929    0.0000 H   0  0  0  0  0  0  0  0  0  0  0  0
   -6.5999    3.7955    0.0000 H   0  0  0  0  0  0  0  0  0  0  0  0
  -10.9338    3.2543    0.0000 H   0  0  0  0  0  0  0  0  0  0  0  0
   -9.8387    2.0417    0.0000 H   0  0  0  0  0  0  0  0  0  0  0  0
   -9.9193    6.4085    0.0000 H   0  0  0  0  0  0  0  0  0  0  0  0
   -8.5019    5.3244    0.0000 H   0  0  0  0  0  0  0  0  0  0  0  0
  -12.6435    4.3305    0.0000 H   0  0  0  0  0  0  0  0  0  0  0  0
  -13.8699    8.3117    0.0000 H   0  0  0  0  0  0  0  0  0  0  0  0
  -14.3618    5.7606    0.0000 H   0  0  0  0  0  0  0  0  0  0  0  0
  -11.4147    9.1613    0.0000 H   0  0  0  0  0  0  0  0  0  0  0  0
   -9.4513    7.4598    0.0000 H   0  0  0  0  0  0  0  0  0  0  0  0
   -6.5082   -1.0454    0.0000 H   0  0  0  0  0  0  0  0  0  0  0  0
   -4.5884   -1.5970    0.0000 H   0  0  0  0  0  0  0  0  0  0  0  0
   -3.3269    2.6295    0.0000 H   0  0  0  0  0  0  0  0  0  0  0  0
   -2.5562    1.0201    0.0000 H   0  0  0  0  0  0  0  0  0  0  0  0
   -6.7889    2.3586    0.0000 H   0  0  0  0  0  0  0  0  0  0  0  0
   -6.1745    0.8446    0.0000 H   0  0  0  0  0  0  0  0  0  0  0  0
   -4.7567    4.9756    0.0000 H   0  0  0  0  0  0  0  0  0  0  0  0
   -3.7943    3.6553    0.0000 H   0  0  0  0  0  0  0  0  0  0  0  0
   -8.0274    3.9547    0.0000 H   0  0  0  0  0  0  0  0  0  0  0  0
   -7.8182    8.1152    0.0000 H   0  0  0  0  0  0  0  0  0  0  0  0
   -9.1529    5.8862    0.0000 H   0  0  0  0  0  0  0  0  0  0  0  0
   -5.2205    8.0739    0.0000 H   0  0  0  0  0  0  0  0  0  0  0  0
   -3.9574    5.8035    0.0000 H   0  0  0  0  0  0  0  0  0  0  0  0
   -4.1798   -3.0302    0.0000 H   0  0  0  0  0  0  0  0  0  0  0  0
   -0.9676   -1.8356    0.0000 H   0  0  0  0  0  0  0  0  0  0  0  0
   -1.1984   -5.1409    0.0000 H   0  0  0  0  0  0  0  0  0  0  0  0
   -5.0927   -5.0848    0.0000 H   0  0  0  0  0  0  0  0  0  0  0  0
   -5.2451   -3.3158    0.0000 H   0  0  0  0  0  0  0  0  0  0  0  0
   -3.9606   -2.5864    0.0000 H   0  0  0  0  0  0  0  0  0  0  0  0
   -3.0446   -7.2713    0.0000 H   0  0  0  0  0  0  0  0  0  0  0  0
   -1.5479   -6.0555    0.0000 H   0  0  0  0  0  0  0  0  0  0  0  0
   -5.0373   -7.4096    0.0000 H   0  0  0  0  0  0  0  0  0  0  0  0
   -5.9748   -5.7245    0.0000 H   0  0  0  0  0  0  0  0  0  0  0  0
   -4.8417   -4.5474    0.0000 H   0  0  0  0  0  0  0  0  0  0  0  0
    0.2926   -1.0400    0.0000 H   0  0  0  0  0  0  0  0  0  0  0  0
    2.7219   -5.3895    0.0000 H   0  0  0  0  0  0  0  0  0  0  0  0
    1.7266   -4.3067    0.0000 H   0  0  0  0  0  0  0  0  0  0  0  0
    4.0890   -6.4594    0.0000 H   0  0  0  0  0  0  0  0  0  0  0  0
    3.0014   -5.7321    0.0000 H   0  0  0  0  0  0  0  0  0  0  0  0
    6.0721   -7.0525    0.0000 H   0  0  0  0  0  0  0  0  0  0  0  0
    4.6398   -6.7185    0.0000 H   0  0  0  0  0  0  0  0  0  0  0  0
    7.1515   -7.3224    0.0000 H   0  0  0  0  0  0  0  0  0  0  0  0
    0.1017   -4.0885    0.0000 H   0  0  0  0  0  0  0  0  0  0  0  0
    1.3596   -5.3632    0.0000 H   0  0  0  0  0  0  0  0  0  0  0  0
    2.5481   -5.0232    0.0000 H   0  0  0  0  0  0  0  0  0  0  0  0
    0.7115    0.6056    0.0000 H   0  0  0  0  0  0  0  0  0  0  0  0
    2.1830    3.0897    0.0000 H   0  0  0  0  0  0  0  0  0  0  0  0
   -0.0793    0.8394    0.0000 H   0  0  0  0  0  0  0  0  0  0  0  0
    1.1983    0.0980    0.0000 H   0  0  0  0  0  0  0  0  0  0  0  0
    0.2232    4.3413    0.0000 H   0  0  0  0  0  0  0  0  0  0  0  0
    1.6838    3.6090    0.0000 H   0  0  0  0  0  0  0  0  0  0  0  0
   -2.4846    2.1672    0.0000 H   0  0  0  0  0  0  0  0  0  0  0  0
   -0.9413    1.2716    0.0000 H   0  0  0  0  0  0  0  0  0  0  0  0
   -3.4299    4.1099    0.0000 H   0  0  0  0  0  0  0  0  0  0  0  0
   -2.2798    5.4743    0.0000 H   0  0  0  0  0  0  0  0  0  0  0  0
   -0.6388    4.7734    0.0000 H   0  0  0  0  0  0  0  0  0  0  0  0
    4.2056    5.0689    0.0000 H   0  0  0  0  0  0  0  0  0  0  0  0
    6.9024    5.5512    0.0000 H   0  0  0  0  0  0  0  0  0  0  0  0
    3.9715    5.9996    0.0000 H   0  0  0  0  0  0  0  0  0  0  0  0
    4.1123    4.3718    0.0000 H   0  0  0  0  0  0  0  0  0  0  0  0
    4.7575    7.8359    0.0000 H   0  0  0  0  0  0  0  0  0  0  0  0
    9.8737    5.1200    0.0000 H   0  0  0  0  0  0  0  0  0  0  0  0
   11.9681    3.1326    0.0000 H   0  0  0  0  0  0  0  0  0  0  0  0
   10.2777    5.8389    0.0000 H   0  0  0  0  0  0  0  0  0  0  0  0
    9.2705    4.7583    0.0000 H   0  0  0  0  0  0  0  0  0  0  0  0
   13.6340    4.9477    0.0000 H   0  0  0  0  0  0  0  0  0  0  0  0
   12.5855    3.5037    0.0000 H   0  0  0  0  0  0  0  0  0  0  0  0
   12.1074    7.8885    0.0000 H   0  0  0  0  0  0  0  0  0  0  0  0
   10.8908    6.5831    0.0000 H   0  0  0  0  0  0  0  0  0  0  0  0
   14.9437    5.9856    0.0000 H   0  0  0  0  0  0  0  0  0  0  0  0
   15.6852   10.4241    0.0000 H   0  0  0  0  0  0  0  0  0  0  0  0
   16.5957    7.9908    0.0000 H   0  0  0  0  0  0  0  0  0  0  0  0
   13.1226   10.8522    0.0000 H   0  0  0  0  0  0  0  0  0  0  0  0
   11.4706    8.8470    0.0000 H   0  0  0  0  0  0  0  0  0  0  0  0
   13.3945    0.8956    0.0000 H   0  0  0  0  0  0  0  0  0  0  0  0
   13.2877   -2.4574    0.0000 H   0  0  0  0  0  0  0  0  0  0  0  0
   12.6799   -3.7967    0.0000 H   0  0  0  0  0  0  0  0  0  0  0  0
   12.5212   -4.2094    0.0000 H   0  0  0  0  0  0  0  0  0  0  0  0
   11.7147   -5.2396    0.0000 H   0  0  0  0  0  0  0  0  0  0  0  0
   11.2723   -5.6576    0.0000 H   0  0  0  0  0  0  0  0  0  0  0  0
   10.0156   -6.4217    0.0000 H   0  0  0  0  0  0  0  0  0  0  0  0
    9.0742   -7.0149    0.0000 H   0  0  0  0  0  0  0  0  0  0  0  0
   14.7636   -1.7432    0.0000 H   0  0  0  0  0  0  0  0  0  0  0  0
   13.9661   -3.3468    0.0000 H   0  0  0  0  0  0  0  0  0  0  0  0
   12.7307   -3.3944    0.0000 H   0  0  0  0  0  0  0  0  0  0  0  0
   14.8708   -2.6543    0.0000 H   0  0  0  0  0  0  0  0  0  0  0  0
   15.0767    0.7308    0.0000 H   0  0  0  0  0  0  0  0  0  0  0  0
   17.5402    2.1013    0.0000 H   0  0  0  0  0  0  0  0  0  0  0  0
   15.7179    1.4707    0.0000 H   0  0  0  0  0  0  0  0  0  0  0  0
   19.3881    2.9293    0.0000 H   0  0  0  0  0  0  0  0  0  0  0  0
   22.2447    1.3516    0.0000 H   0  0  0  0  0  0  0  0  0  0  0  0
   21.7528   -1.7197    0.0000 H   0  0  0  0  0  0  0  0  0  0  0  0
   19.0063    0.9746    0.0000 H   0  0  0  0  0  0  0  0  0  0  0  0
   18.9248   -2.3790    0.0000 H   0  0  0  0  0  0  0  0  0  0  0  0
   22.0363   -3.3314    0.0000 H   0  0  0  0  0  0  0  0  0  0  0  0
   22.1763   -1.7036    0.0000 H   0  0  0  0  0  0  0  0  0  0  0  0
   22.6344   -5.1439    0.0000 H   0  0  0  0  0  0  0  0  0  0  0  0
   20.5846   -7.6831    0.0000 H   0  0  0  0  0  0  0  0  0  0  0  0
   17.5362   -6.5183    0.0000 H   0  0  0  0  0  0  0  0  0  0  0  0
   22.6640   -2.7784    0.0000 H   0  0  0  0  0  0  0  0  0  0  0  0
   22.8699    0.6067    0.0000 H   0  0  0  0  0  0  0  0  0  0  0  0
   25.3335    1.9772    0.0000 H   0  0  0  0  0  0  0  0  0  0  0  0
   23.5111    1.3466    0.0000 H   0  0  0  0  0  0  0  0  0  0  0  0
   27.2533    1.4256    0.0000 H   0  0  0  0  0  0  0  0  0  0  0  0
   26.6200    0.8867    0.0000 H   0  0  0  0  0  0  0  0  0  0  0  0
   26.5872   -2.3749    0.0000 H   0  0  0  0  0  0  0  0  0  0  0  0
   29.7594   -1.5285    0.0000 H   0  0  0  0  0  0  0  0  0  0  0  0
   30.0922   -4.7960    0.0000 H   0  0  0  0  0  0  0  0  0  0  0  0
   28.9075   -5.2059    0.0000 H   0  0  0  0  0  0  0  0  0  0  0  0
   27.1284   -5.0686    0.0000 H   0  0  0  0  0  0  0  0  0  0  0  0
   26.7395   -3.3271    0.0000 H   0  0  0  0  0  0  0  0  0  0  0  0
  1  2  1  0
  2  3  1  0
  3  4  1  0
  4  5  2  0
  4  6  1  0
  6  7  1  0
  7  8  1  0
  8  9  1  0
  9 10  1  0
 10 11  2  0
 10 12  1  0
  7 13  1  0
 13 14  2  0
 13 15  1  0
 15 16  1  0
 16 17  1  0
 17 18  1  0
 18 19  1  0
 19 20  1  0
 20 21  1  0
 21 22  2  3
 21 23  1  0
 16 24  1  0
 24 25  2  0
 24 26  1  0
 26 27  1  0
 27 28  1  0
 28 29  1  0
 29 30  1  0
 29 31  1  0
 27 32  1  0
 32 33  2  0
 32 34  1  0
 34 35  1  0
 35 36  1  0
 36 37  1  0
 37 38  1  0
 38 39  1  0
 39 40  1  0
 40 41  2  3
 40 42  1  0
 35 43  1  0
 43 44  2  0
 43 45  1  0
 45 46  1  0
 46 47  1  0
 47 48  1  0
 48 49  1  0
 49 50  1  0
 50 51  1  0
 51 52  2  3
 51 53  1  0
 46 54  1  0
 54 55  2  0
 54 56  1  0
 56 57  1  0
 57 58  1  0
 58 59  1  0
 59 60  1  0
 60 61  1  0
 61 62  1  0
 62 63  2  3
 62 64  1  0
 57 65  1  0
 65 66  2  0
 65 67  1  0
 67 68  1  0
 68 69  1  0
 69 70  1  0
 69 71  1  0
 71 72  1  0
 68 73  1  0
 73 74  2  0
 73 75  1  0
 76 75  1  6
 76 77  1  0
 77 78  1  0
 78 79  1  0
 79 80  1  0
 76 81  1  0
 76 82  1  0
 82 83  2  0
 82 84  1  0
 84 85  1  0
 85 86  1  0
 86 87  1  0
 87 88  1  0
 88 89  1  0
 85 90  1  0
 90 91  2  0
 90 92  1  0
 92 93  1  0
 93 94  1  0
 94 95  1  0
 93 96  1  0
 96 97  2  0
 96 98  1  0
 98 99  1  0
 99100  1  0
100101  1  0
101102  1  0
102103  1  0
103104  1  0
104105  2  3
104106  1  0
 99107  1  0
107108  2  0
107109  1  0
109110  1  0
110111  1  0
111112  1  0
112113  1  0
113114  1  0
110115  1  0
110116  1  6
116117  2  0
116118  1  0
118119  1  0
119120  1  0
120121  1  0
121122  2  0
122123  1  0
123124  1  0
124125  2  0
119126  1  0
126127  2  0
126128  1  0
128129  1  0
129130  1  0
130131  1  0
131132  2  0
132133  1  0
133134  1  0
134135  2  0
129136  1  0
136137  2  0
136138  1  0
138139  1  0
139140  1  0
140141  1  0
139142  1  0
142143  2  0
142144  1  0
144145  1  0
145146  1  0
146147  1  0
146148  1  0
145149  1  0
149150  2  0
149151  1  0
125121  1  0
135131  1  0
 80114  2  0
  1152  1  0
  1153  1  0
  2154  1  0
  2155  1  0
  3156  1  0
  3157  1  0
  6158  1  0
  7159  1  6
  8160  1  0
  8161  1  0
  9162  1  0
  9163  1  0
 15164  1  0
 16165  1  6
 17166  1  0
 17167  1  0
 18168  1  0
 18169  1  0
 19170  1  0
 19171  1  0
 20172  1  0
 22173  1  0
 22174  1  0
 23175  1  0
 23176  1  0
 26177  1  0
 27178  1  1
 28179  1  0
 28180  1  0
 29181  1  0
 30182  1  0
 30183  1  0
 30184  1  0
 31185  1  0
 31186  1  0
 31187  1  0
 34188  1  0
 35189  1  1
 36190  1  0
 36191  1  0
 37192  1  0
 37193  1  0
 38194  1  0
 38195  1  0
 39196  1  0
 41197  1  0
 41198  1  0
 42199  1  0
 42200  1  0
 45201  1  0
 46202  1  1
 47203  1  0
 47204  1  0
 48205  1  0
 48206  1  0
 49207  1  0
 49208  1  0
 50209  1  0
 52210  1  0
 52211  1  0
 53212  1  0
 53213  1  0
 56214  1  0
 57215  1  1
 58216  1  0
 58217  1  0
 59218  1  0
 59219  1  0
 60220  1  0
 60221  1  0
 61222  1  0
 63223  1  0
 63224  1  0
 64225  1  0
 64226  1  0
 67227  1  0
 68228  1  6
 69229  1  1
 70230  1  0
 70231  1  0
 70232  1  0
 71233  1  0
 71234  1  0
 72235  1  0
 72236  1  0
 72237  1  0
 75238  1  0
 77239  1  0
 77240  1  0
 78241  1  0
 78242  1  0
 79243  1  0
 79244  1  0
 80245  1  0
 81246  1  0
 81247  1  0
 81248  1  0
 84249  1  0
 85250  1  6
 86251  1  0
 86252  1  0
 87253  1  0
 87254  1  0
 88255  1  0
 88256  1  0
 89257  1  0
 89258  1  0
 89259  1  0
 92260  1  0
 93261  1  1
 94262  1  0
 94263  1  0
 95264  1  0
 98265  1  0
 99266  1  1
100267  1  0
100268  1  0
101269  1  0
101270  1  0
102271  1  0
102272  1  0
103273  1  0
105274  1  0
105275  1  0
106276  1  0
106277  1  0
109278  1  0
111279  1  0
111280  1  0
112281  1  0
112282  1  0
113283  1  0
113284  1  0
114285  1  0
115286  1  0
115287  1  0
115288  1  0
118289  1  0
119290  1  1
120291  1  0
120292  1  0
122293  1  0
123294  1  0
124295  1  0
128296  1  0
129297  1  6
130298  1  0
130299  1  0
132300  1  0
133301  1  0
134302  1  0
138303  1  0
139304  1  1
140305  1  0
140306  1  0
141307  1  0
144308  1  0
145309  1  6
146310  1  1
147311  1  0
148312  1  0
148313  1  0
148314  1  0
M  CHG  7  12  -1  22   1  41   1  52   1  63   1 105   1 151  -1
M  END
