
     RDKit          2D

287294  0  0  0  0  0  0  0  0999 V2000
  -12.7465   -8.0810    0.0000 C   0  0  0  0  0  0  0  0  0  0  0  0
  -11.4845   -8.8917    0.0000 N   0  0  0  0  0  0  0  0  0  0  0  0
  -11.5555  -10.3900    0.0000 C   0  0  0  0  0  0  0  0  0  0  0  0
  -12.8886  -11.0777    0.0000 C   0  0  0  0  0  0  0  0  0  0  0  0
  -12.9596  -12.5760    0.0000 C   0  0  0  0  0  0  0  0  0  0  0  0
  -11.6976  -13.3867    0.0000 C   0  0  0  0  0  0  0  0  0  0  0  0
  -10.3645  -12.6990    0.0000 C   0  0  0  0  0  0  0  0  0  0  0  0
  -10.2934  -11.2007    0.0000 C   0  0  0  0  0  0  0  0  0  0  0  0
   -9.2985  -13.7544    0.0000 C   0  0  0  0  0  0  0  0  0  0  0  0
   -9.9729  -15.0943    0.0000 O   0  0  0  0  0  0  0  0  0  0  0  0
  -11.4555  -14.8670    0.0000 C   0  0  0  0  0  0  0  0  0  0  0  0
  -12.5109  -15.9329    0.0000 O   0  0  0  0  0  0  0  0  0  0  0  0
   -8.3488  -14.9154    0.0000 C   0  0  0  0  0  0  0  0  0  0  0  0
   -6.8684  -14.6734    0.0000 C   0  0  0  0  0  0  0  0  0  0  0  0
   -5.9186  -15.8344    0.0000 C   0  0  0  0  0  0  0  0  0  0  0  0
   -6.4492  -17.2374    0.0000 C   0  0  0  0  0  0  0  0  0  0  0  0
   -7.9296  -17.4794    0.0000 C   0  0  0  0  0  0  0  0  0  0  0  0
   -8.8793  -16.3184    0.0000 C   0  0  0  0  0  0  0  0  0  0  0  0
   -5.4994  -18.3984    0.0000 O   0  0  0  0  0  0  0  0  0  0  0  0
   -6.3379  -13.2703    0.0000 O   0  0  0  0  0  0  0  0  0  0  0  0
   -7.2876  -12.1093    0.0000 C   0  0  0  0  0  0  0  0  0  0  0  0
   -8.7680  -12.3514    0.0000 C   0  0  0  0  0  0  0  0  0  0  0  0
   -9.0269  -11.0774    0.0000 C   0  0  0  0  0  0  0  0  0  0  0  0
   -8.7440  -10.3291    0.0000 C   0  0  0  0  0  0  0  0  0  0  0  0
   -7.9544  -10.2000    0.0000 C   0  0  0  0  0  0  0  0  0  0  0  0
   -7.4479  -10.8192    0.0000 C   0  0  0  0  0  0  0  0  0  0  0  0
   -7.1763   -8.1423    0.0000 O   0  0  0  0  0  0  0  0  0  0  0  0
  -14.0796   -8.7687    0.0000 S   0  0  0  0  0  0  0  0  0  0  0  0
  -12.6755   -6.5827    0.0000 N   0  0  0  0  0  0  0  0  0  0  0  0
  -13.9375   -5.7720    0.0000 C   0  0  0  0  0  0  0  0  0  0  0  0
  -13.8665   -4.2737    0.0000 C   0  0  0  0  0  0  0  0  0  0  0  0
  -15.1286   -3.4630    0.0000 C   0  0  0  0  0  0  0  0  0  0  0  0
  -16.4617   -4.1507    0.0000 O   0  0  0  0  0  0  0  0  0  0  0  0
  -15.0575   -1.9647    0.0000 N   0  0  0  0  0  0  0  0  0  0  0  0
  -16.3196   -1.1540    0.0000 C   0  0  0  0  0  0  0  0  0  0  0  0
  -17.7828   -0.8239    0.0000 C   0  0  0  0  0  0  0  0  0  0  0  0
  -18.2285    0.6084    0.0000 C   0  0  0  0  0  0  0  0  0  0  0  0
  -19.6917    0.9385    0.0000 C   0  0  0  0  0  0  0  0  0  0  0  0
  -20.1915    2.0460    0.0000 O   0  0  0  0  0  0  0  0  0  0  0  0
  -20.7092   -0.1636    0.0000 O   0  0  0  0  0  0  0  0  0  0  0  0
  -16.2485    0.3443    0.0000 C   0  0  0  0  0  0  0  0  0  0  0  0
  -14.9154    1.0319    0.0000 O   0  0  0  0  0  0  0  0  0  0  0  0
  -17.5106    1.1550    0.0000 N   0  0  0  0  0  0  0  0  0  0  0  0
  -17.4396    2.6533    0.0000 C   0  0  0  0  0  0  0  0  0  0  0  0
  -16.8604    4.0369    0.0000 C   0  0  0  0  0  0  0  0  0  0  0  0
  -15.3725    4.2272    0.0000 C   0  0  0  0  0  0  0  0  0  0  0  0
  -14.4757    5.4295    0.0000 N   0  0  0  0  0  0  0  0  0  0  0  0
  -14.4638    3.0337    0.0000 O   0  0  0  0  0  0  0  0  0  0  0  0
  -18.7016    3.4640    0.0000 C   0  0  0  0  0  0  0  0  0  0  0  0
  -19.8413    3.0428    0.0000 O   0  0  0  0  0  0  0  0  0  0  0  0
  -18.6306    4.9623    0.0000 N   0  0  0  0  0  0  0  0  0  0  0  0
  -19.8010    5.9004    0.0000 C   0  0  0  0  0  0  0  0  0  0  0  0
  -19.2704    7.3035    0.0000 C   0  0  0  0  0  0  0  0  0  0  0  0
  -17.7721    7.2324    0.0000 C   0  0  0  0  0  0  0  0  0  0  0  0
  -17.3767    5.7855    0.0000 C   0  0  0  0  0  0  0  0  0  0  0  0
  -15.9790    6.3300    0.0000 C   0  0  0  0  0  0  0  0  0  0  0  0
  -15.5727    7.7739    0.0000 O   0  0  0  0  0  0  0  0  0  0  0  0
  -14.8086    5.3919    0.0000 N   0  0  0  0  0  0  0  0  0  0  0  0
  -13.4109    5.9364    0.0000 C   0  0  0  0  0  0  0  0  0  0  0  0
  -12.2838    6.9261    0.0000 C   0  0  0  0  0  0  0  0  0  0  0  0
  -10.8631    6.4448    0.0000 C   0  0  0  0  0  0  0  0  0  0  0  0
   -9.7359    7.4345    0.0000 C   0  0  0  0  0  0  0  0  0  0  0  0
   -8.2672    7.1300    0.0000 O   0  0  0  0  0  0  0  0  0  0  0  0
  -10.0295    8.9055    0.0000 O   0  0  0  0  0  0  0  0  0  0  0  0
  -12.2405    4.9982    0.0000 C   0  0  0  0  0  0  0  0  0  0  0  0
  -12.4678    3.5155    0.0000 O   0  0  0  0  0  0  0  0  0  0  0  0
  -10.8428    5.5427    0.0000 N   0  0  0  0  0  0  0  0  0  0  0  0
   -9.6724    4.6046    0.0000 C   0  0  0  0  0  0  0  0  0  0  0  0
   -8.8935    3.3227    0.0000 C   0  0  0  0  0  0  0  0  0  0  0  0
   -9.6141    2.0072    0.0000 O   0  0  0  0  0  0  0  0  0  0  0  0
   -8.2747    5.1491    0.0000 C   0  0  0  0  0  0  0  0  0  0  0  0
   -7.8684    6.5930    0.0000 O   0  0  0  0  0  0  0  0  0  0  0  0
   -7.1043    4.2109    0.0000 N   0  0  0  0  0  0  0  0  0  0  0  0
   -5.7067    4.7555    0.0000 C   0  0  0  0  0  0  0  0  0  0  0  0
   -4.5795    5.7452    0.0000 C   0  0  0  0  0  0  0  0  0  0  0  0
   -3.1108    5.4407    0.0000 C   0  0  0  0  0  0  0  0  0  0  0  0
   -3.8589    7.0607    0.0000 C   0  0  0  0  0  0  0  0  0  0  0  0
   -4.6378    8.3426    0.0000 C   0  0  0  0  0  0  0  0  0  0  0  0
   -4.5363    3.8173    0.0000 C   0  0  0  0  0  0  0  0  0  0  0  0
   -4.7635    2.3346    0.0000 O   0  0  0  0  0  0  0  0  0  0  0  0
   -3.1386    4.3618    0.0000 N   0  0  0  0  0  0  0  0  0  0  0  0
   -1.9682    3.4237    0.0000 C   0  0  0  0  0  0  0  0  0  0  0  0
   -1.1892    2.1418    0.0000 C   0  0  0  0  0  0  0  0  0  0  0  0
   -1.9099    0.8262    0.0000 C   0  0  0  0  0  0  0  0  0  0  0  0
   -1.1309   -0.4556    0.0000 C   0  0  0  0  0  0  0  0  0  0  0  0
   -3.0370   -0.1635    0.0000 C   0  0  0  0  0  0  0  0  0  0  0  0
   -0.5705    3.9682    0.0000 C   0  0  0  0  0  0  0  0  0  0  0  0
   -0.3432    5.4509    0.0000 O   0  0  0  0  0  0  0  0  0  0  0  0
    0.5999    3.0300    0.0000 N   0  0  0  0  0  0  0  0  0  0  0  0
    1.9976    3.5745    0.0000 C   0  0  0  0  0  0  0  0  0  0  0  0
    3.1247    4.5643    0.0000 C   0  0  0  0  0  0  0  0  0  0  0  0
    4.5454    4.0830    0.0000 C   0  0  0  0  0  0  0  0  0  0  0  0
    5.5435    5.2027    0.0000 O   0  0  0  0  0  0  0  0  0  0  0  0
    5.1862    2.7267    0.0000 O   0  0  0  0  0  0  0  0  0  0  0  0
    3.1680    2.6364    0.0000 C   0  0  0  0  0  0  0  0  0  0  0  0
    2.7617    1.1925    0.0000 O   0  0  0  0  0  0  0  0  0  0  0  0
    4.5657    3.1809    0.0000 N   0  0  0  0  0  0  0  0  0  0  0  0
    5.7361    2.2428    0.0000 C   0  0  0  0  0  0  0  0  0  0  0  0
    5.8071    0.7444    0.0000 C   0  0  0  0  0  0  0  0  0  0  0  0
    6.3166   -0.6664    0.0000 C   0  0  0  0  0  0  0  0  0  0  0  0
    7.2193   -1.8643    0.0000 C   0  0  0  0  0  0  0  0  0  0  0  0
    8.4350   -2.7430    0.0000 C   0  0  0  0  0  0  0  0  0  0  0  0
    4.3265    1.7298    0.0000 C   0  0  0  0  0  0  0  0  0  0  0  0
    6.1098    3.6954    0.0000 C   0  0  0  0  0  0  0  0  0  0  0  0
    5.0309    4.7375    0.0000 O   0  0  0  0  0  0  0  0  0  0  0  0
    6.8952    4.9734    0.0000 N   0  0  0  0  0  0  0  0  0  0  0  0
    8.0223    5.9631    0.0000 C   0  0  0  0  0  0  0  0  0  0  0  0
    8.0261    7.4631    0.0000 C   0  0  0  0  0  0  0  0  0  0  0  0
    6.7289    8.2164    0.0000 C   0  0  0  0  0  0  0  0  0  0  0  0
    5.3571    7.6097    0.0000 C   0  0  0  0  0  0  0  0  0  0  0  0
    4.3562    8.7269    0.0000 N   0  0  0  0  0  0  0  0  0  0  0  0
    5.1094   10.0241    0.0000 C   0  0  0  0  0  0  0  0  0  0  0  0
    6.5759    9.7085    0.0000 N   0  0  0  0  0  0  0  0  0  0  0  0
    9.3911    6.5766    0.0000 C   0  0  0  0  0  0  0  0  0  0  0  0
    8.9885    8.0216    0.0000 O   0  0  0  0  0  0  0  0  0  0  0  0
   10.8799    6.7594    0.0000 N   0  0  0  0  0  0  0  0  0  0  0  0
   12.3565    6.4953    0.0000 C   0  0  0  0  0  0  0  0  0  0  0  0
   13.5316    7.4276    0.0000 C   0  0  0  0  0  0  0  0  0  0  0  0
   13.3117    8.9114    0.0000 C   0  0  0  0  0  0  0  0  0  0  0  0
   13.6896    5.8076    0.0000 C   0  0  0  0  0  0  0  0  0  0  0  0
   14.5683    7.0234    0.0000 O   0  0  0  0  0  0  0  0  0  0  0  0
   14.7608    4.7576    0.0000 N   0  0  0  0  0  0  0  0  0  0  0  0
   15.4749    3.4385    0.0000 C   0  0  0  0  0  0  0  0  0  0  0  0
   16.9364    3.1011    0.0000 C   0  0  0  0  0  0  0  0  0  0  0  0
   17.9594    4.1981    0.0000 C   0  0  0  0  0  0  0  0  0  0  0  0
   19.4210    3.8606    0.0000 C   0  0  0  0  0  0  0  0  0  0  0  0
   20.4440    4.9577    0.0000 N   0  0  0  0  0  0  0  0  0  0  0  0
   19.8595    2.4262    0.0000 O   0  0  0  0  0  0  0  0  0  0  0  0
   15.7684    1.9675    0.0000 C   0  0  0  0  0  0  0  0  0  0  0  0
   17.2667    2.0385    0.0000 O   0  0  0  0  0  0  0  0  0  0  0  0
   15.6153    0.4753    0.0000 N   0  0  0  0  0  0  0  0  0  0  0  0
   15.0292   -0.9054    0.0000 C   0  0  0  0  0  0  0  0  0  0  0  0
   14.0622   -2.0521    0.0000 C   0  0  0  0  0  0  0  0  0  0  0  0
   12.8001   -2.8628    0.0000 C   0  0  0  0  0  0  0  0  0  0  0  0
   11.3552   -3.2654    0.0000 C   0  0  0  0  0  0  0  0  0  0  0  0
    9.8557   -3.2243    0.0000 C   0  0  0  0  0  0  0  0  0  0  0  0
   16.5289   -0.8718    0.0000 C   0  0  0  0  0  0  0  0  0  0  0  0
   15.6767   -2.2585    0.0000 C   0  0  0  0  0  0  0  0  0  0  0  0
   15.1532   -3.6642    0.0000 O   0  0  0  0  0  0  0  0  0  0  0  0
   17.1722   -2.3743    0.0000 N   0  0  0  0  0  0  0  0  0  0  0  0
   17.8197   -3.7274    0.0000 C   0  0  0  0  0  0  0  0  0  0  0  0
   17.9653   -5.2203    0.0000 C   0  0  0  0  0  0  0  0  0  0  0  0
   16.7452   -6.0929    0.0000 C   0  0  0  0  0  0  0  0  0  0  0  0
   19.3152   -3.8432    0.0000 C   0  0  0  0  0  0  0  0  0  0  0  0
   20.1632   -2.6060    0.0000 O   0  0  0  0  0  0  0  0  0  0  0  0
   19.9626   -5.1963    0.0000 N   0  0  0  0  0  0  0  0  0  0  0  0
   21.4581   -5.3121    0.0000 C   0  0  0  0  0  0  0  0  0  0  0  0
   22.9031   -4.9095    0.0000 C   0  0  0  0  0  0  0  0  0  0  0  0
   23.9743   -5.9595    0.0000 C   0  0  0  0  0  0  0  0  0  0  0  0
   25.4192   -5.5569    0.0000 S   0  0  0  0  0  0  0  0  0  0  0  0
   26.4904   -6.6069    0.0000 C   0  0  0  0  0  0  0  0  0  0  0  0
   22.1056   -6.6652    0.0000 C   0  0  0  0  0  0  0  0  0  0  0  0
   23.5758   -6.9625    0.0000 O   0  0  0  0  0  0  0  0  0  0  0  0
   21.2575   -7.9025    0.0000 O   0  0  0  0  0  0  0  0  0  0  0  0
  -10.2451   -8.0467    0.0000 H   0  0  0  0  0  0  0  0  0  0  0  0
  -14.1507  -10.2670    0.0000 H   0  0  0  0  0  0  0  0  0  0  0  0
  -14.2927  -13.2636    0.0000 H   0  0  0  0  0  0  0  0  0  0  0  0
   -9.1663  -10.2109    0.0000 H   0  0  0  0  0  0  0  0  0  0  0  0
   -4.4383  -15.5923    0.0000 H   0  0  0  0  0  0  0  0  0  0  0  0
   -8.4601  -18.8824    0.0000 H   0  0  0  0  0  0  0  0  0  0  0  0
  -10.3597  -16.5604    0.0000 H   0  0  0  0  0  0  0  0  0  0  0  0
   -6.0300  -19.8014    0.0000 H   0  0  0  0  0  0  0  0  0  0  0  0
  -11.1981  -11.4324    0.0000 H   0  0  0  0  0  0  0  0  0  0  0  0
   -9.9884   -8.5192    0.0000 H   0  0  0  0  0  0  0  0  0  0  0  0
   -5.2767  -10.4643    0.0000 H   0  0  0  0  0  0  0  0  0  0  0  0
   -5.6959   -7.9002    0.0000 H   0  0  0  0  0  0  0  0  0  0  0  0
  -11.3424   -5.8951    0.0000 H   0  0  0  0  0  0  0  0  0  0  0  0
  -15.4008   -5.4419    0.0000 H   0  0  0  0  0  0  0  0  0  0  0  0
  -14.5168   -7.1557    0.0000 H   0  0  0  0  0  0  0  0  0  0  0  0
  -13.2873   -2.8901    0.0000 H   0  0  0  0  0  0  0  0  0  0  0  0
  -12.4033   -4.6039    0.0000 H   0  0  0  0  0  0  0  0  0  0  0  0
  -13.7244   -1.2771    0.0000 H   0  0  0  0  0  0  0  0  0  0  0  0
  -16.8988   -2.5377    0.0000 H   0  0  0  0  0  0  0  0  0  0  0  0
  -19.2707   -1.0141    0.0000 H   0  0  0  0  0  0  0  0  0  0  0  0
  -17.8538   -2.3222    0.0000 H   0  0  0  0  0  0  0  0  0  0  0  0
  -18.1575    2.1067    0.0000 H   0  0  0  0  0  0  0  0  0  0  0  0
  -17.0042    1.4750    0.0000 H   0  0  0  0  0  0  0  0  0  0  0  0
  -18.9705    0.8103    0.0000 H   0  0  0  0  0  0  0  0  0  0  0  0
  -15.9764    2.3231    0.0000 H   0  0  0  0  0  0  0  0  0  0  0  0
  -16.4289    5.4735    0.0000 H   0  0  0  0  0  0  0  0  0  0  0  0
  -18.2002    4.7113    0.0000 H   0  0  0  0  0  0  0  0  0  0  0  0
  -13.2503    5.5068    0.0000 H   0  0  0  0  0  0  0  0  0  0  0  0
  -15.1277    7.1525    0.0000 H   0  0  0  0  0  0  0  0  0  0  0  0
  -20.6117    4.6384    0.0000 H   0  0  0  0  0  0  0  0  0  0  0  0
  -21.1409    6.5748    0.0000 H   0  0  0  0  0  0  0  0  0  0  0  0
  -20.7212    7.6845    0.0000 H   0  0  0  0  0  0  0  0  0  0  0  0
  -19.0432    8.7862    0.0000 H   0  0  0  0  0  0  0  0  0  0  0  0
  -17.8581    8.7300    0.0000 H   0  0  0  0  0  0  0  0  0  0  0  0
  -16.3943    7.8255    0.0000 H   0  0  0  0  0  0  0  0  0  0  0  0
  -16.3869    4.6584    0.0000 H   0  0  0  0  0  0  0  0  0  0  0  0
  -14.6703    3.8982    0.0000 H   0  0  0  0  0  0  0  0  0  0  0  0
  -14.1899    7.2183    0.0000 H   0  0  0  0  0  0  0  0  0  0  0  0
  -11.5631    8.2416    0.0000 H   0  0  0  0  0  0  0  0  0  0  0  0
  -13.4542    7.8643    0.0000 H   0  0  0  0  0  0  0  0  0  0  0  0
   -9.6927    5.5067    0.0000 H   0  0  0  0  0  0  0  0  0  0  0  0
  -10.8816    4.9449    0.0000 H   0  0  0  0  0  0  0  0  0  0  0  0
  -10.2635    6.9264    0.0000 H   0  0  0  0  0  0  0  0  0  0  0  0
  -10.7996    3.6149    0.0000 H   0  0  0  0  0  0  0  0  0  0  0  0
   -7.8461    2.2489    0.0000 H   0  0  0  0  0  0  0  0  0  0  0  0
   -7.5603    4.0103    0.0000 H   0  0  0  0  0  0  0  0  0  0  0  0
   -8.8352    0.7253    0.0000 H   0  0  0  0  0  0  0  0  0  0  0  0
   -7.1492    2.7116    0.0000 H   0  0  0  0  0  0  0  0  0  0  0  0
   -6.4856    6.0373    0.0000 H   0  0  0  0  0  0  0  0  0  0  0  0
   -5.8556    6.5337    0.0000 H   0  0  0  0  0  0  0  0  0  0  0  0
   -1.9194    6.1088    0.0000 H   0  0  0  0  0  0  0  0  0  0  0  0
   -1.9884    4.3257    0.0000 H   0  0  0  0  0  0  0  0  0  0  0  0
   -3.1774    3.7640    0.0000 H   0  0  0  0  0  0  0  0  0  0  0  0
   -2.7317    8.0504    0.0000 H   0  0  0  0  0  0  0  0  0  0  0  0
   -2.4962    6.4336    0.0000 H   0  0  0  0  0  0  0  0  0  0  0  0
   -3.9171    9.6581    0.0000 H   0  0  0  0  0  0  0  0  0  0  0  0
   -5.8082    9.2808    0.0000 H   0  0  0  0  0  0  0  0  0  0  0  0
   -5.8772    7.4977    0.0000 H   0  0  0  0  0  0  0  0  0  0  0  0
   -2.5593    5.7455    0.0000 H   0  0  0  0  0  0  0  0  0  0  0  0
   -3.2076    2.5787    0.0000 H   0  0  0  0  0  0  0  0  0  0  0  0
   -0.0188    1.2036    0.0000 H   0  0  0  0  0  0  0  0  0  0  0  0
    0.1439    2.8293    0.0000 H   0  0  0  0  0  0  0  0  0  0  0  0
   -3.1859    1.6147    0.0000 H   0  0  0  0  0  0  0  0  0  0  0  0
   -1.6859   -1.8492    0.0000 H   0  0  0  0  0  0  0  0  0  0  0  0
    0.0395   -1.3938    0.0000 H   0  0  0  0  0  0  0  0  0  0  0  0
    0.1084    0.3893    0.0000 H   0  0  0  0  0  0  0  0  0  0  0  0
   -2.9250   -1.6593    0.0000 H   0  0  0  0  0  0  0  0  0  0  0  0
   -4.4347   -0.7080    0.0000 H   0  0  0  0  0  0  0  0  0  0  0  0
   -3.8160    1.1184    0.0000 H   0  0  0  0  0  0  0  0  0  0  0  0
    0.5551    1.5307    0.0000 H   0  0  0  0  0  0  0  0  0  0  0  0
    1.2186    4.8564    0.0000 H   0  0  0  0  0  0  0  0  0  0  0  0
    3.8454    5.8798    0.0000 H   0  0  0  0  0  0  0  0  0  0  0  0
    1.9543    5.5024    0.0000 H   0  0  0  0  0  0  0  0  0  0  0  0
    4.9720    4.6248    0.0000 H   0  0  0  0  0  0  0  0  0  0  0  0
    4.3553    1.1218    0.0000 H   0  0  0  0  0  0  0  0  0  0  0  0
    4.7307   -0.3002    0.0000 H   0  0  0  0  0  0  0  0  0  0  0  0
    4.8375   -0.9159    0.0000 H   0  0  0  0  0  0  0  0  0  0  0  0
    5.4410   -1.8843    0.0000 H   0  0  0  0  0  0  0  0  0  0  0  0
    5.8073   -2.3704    0.0000 H   0  0  0  0  0  0  0  0  0  0  0  0
    6.9184   -3.3339    0.0000 H   0  0  0  0  0  0  0  0  0  0  0  0
    7.7474   -4.0761    0.0000 H   0  0  0  0  0  0  0  0  0  0  0  0
    3.9181    0.1147    0.0000 H   0  0  0  0  0  0  0  0  0  0  0  0
    2.9641    1.2090    0.0000 H   0  0  0  0  0  0  0  0  0  0  0  0
    3.6654    2.8702    0.0000 H   0  0  0  0  0  0  0  0  0  0  0  0
    5.7485    5.9405    0.0000 H   0  0  0  0  0  0  0  0  0  0  0  0
    6.6566    6.5835    0.0000 H   0  0  0  0  0  0  0  0  0  0  0  0
    8.5426    8.8714    0.0000 H   0  0  0  0  0  0  0  0  0  0  0  0
    9.5227    7.5641    0.0000 H   0  0  0  0  0  0  0  0  0  0  0  0
    4.8651    6.1926    0.0000 H   0  0  0  0  0  0  0  0  0  0  0  0
    2.8640    8.5738    0.0000 H   0  0  0  0  0  0  0  0  0  0  0  0
    4.5027   11.3959    0.0000 H   0  0  0  0  0  0  0  0  0  0  0  0
   10.9211    8.2589    0.0000 H   0  0  0  0  0  0  0  0  0  0  0  0
   11.8154    7.8943    0.0000 H   0  0  0  0  0  0  0  0  0  0  0  0
   14.9547    7.9018    0.0000 H   0  0  0  0  0  0  0  0  0  0  0  0
   14.5436    6.3205    0.0000 H   0  0  0  0  0  0  0  0  0  0  0  0
   14.4868    9.8437    0.0000 H   0  0  0  0  0  0  0  0  0  0  0  0
   12.5976   10.2305    0.0000 H   0  0  0  0  0  0  0  0  0  0  0  0
   11.8415    8.6142    0.0000 H   0  0  0  0  0  0  0  0  0  0  0  0
   15.9587    5.6603    0.0000 H   0  0  0  0  0  0  0  0  0  0  0  0
   16.2313    4.7338    0.0000 H   0  0  0  0  0  0  0  0  0  0  0  0
   18.1944    2.2841    0.0000 H   0  0  0  0  0  0  0  0  0  0  0  0
   16.7018    1.6195    0.0000 H   0  0  0  0  0  0  0  0  0  0  0  0
   18.5455    5.5788    0.0000 H   0  0  0  0  0  0  0  0  0  0  0  0
   16.8104    5.1623    0.0000 H   0  0  0  0  0  0  0  0  0  0  0  0
   21.9055    4.6202    0.0000 H   0  0  0  0  0  0  0  0  0  0  0  0
   20.0054    6.3921    0.0000 H   0  0  0  0  0  0  0  0  0  0  0  0
   17.0680    0.1016    0.0000 H   0  0  0  0  0  0  0  0  0  0  0  0
   14.2820   -3.5359    0.0000 H   0  0  0  0  0  0  0  0  0  0  0  0
   15.3630   -2.7989    0.0000 H   0  0  0  0  0  0  0  0  0  0  0  0
   12.7553   -4.3621    0.0000 H   0  0  0  0  0  0  0  0  0  0  0  0
   13.8231   -3.9598    0.0000 H   0  0  0  0  0  0  0  0  0  0  0  0
   10.7010   -4.6152    0.0000 H   0  0  0  0  0  0  0  0  0  0  0  0
   12.1690   -4.5255    0.0000 H   0  0  0  0  0  0  0  0  0  0  0  0
    9.5916   -4.7008    0.0000 H   0  0  0  0  0  0  0  0  0  0  0  0
   17.5948   -1.9271    0.0000 H   0  0  0  0  0  0  0  0  0  0  0  0
   17.8497   -0.1610    0.0000 H   0  0  0  0  0  0  0  0  0  0  0  0
   16.6000    0.6265    0.0000 H   0  0  0  0  0  0  0  0  0  0  0  0
   18.1648   -1.2497    0.0000 H   0  0  0  0  0  0  0  0  0  0  0  0
   16.3364   -3.9509    0.0000 H   0  0  0  0  0  0  0  0  0  0  0  0
   18.4430   -6.6422    0.0000 H   0  0  0  0  0  0  0  0  0  0  0  0
   19.4647   -5.1793    0.0000 H   0  0  0  0  0  0  0  0  0  0  0  0
   16.8908   -7.5858    0.0000 H   0  0  0  0  0  0  0  0  0  0  0  0
   15.3002   -6.4956    0.0000 H   0  0  0  0  0  0  0  0  0  0  0  0
   15.9376   -4.8288    0.0000 H   0  0  0  0  0  0  0  0  0  0  0  0
   19.2717   -6.5277    0.0000 H   0  0  0  0  0  0  0  0  0  0  0  0
   21.3125   -3.8192    0.0000 H   0  0  0  0  0  0  0  0  0  0  0  0
   24.1232   -4.0369    0.0000 H   0  0  0  0  0  0  0  0  0  0  0  0
   22.2556   -3.5564    0.0000 H   0  0  0  0  0  0  0  0  0  0  0  0
   24.4520   -7.3814    0.0000 H   0  0  0  0  0  0  0  0  0  0  0  0
   23.1480   -7.2115    0.0000 H   0  0  0  0  0  0  0  0  0  0  0  0
   27.9353   -6.2043    0.0000 H   0  0  0  0  0  0  0  0  0  0  0  0
   27.1378   -7.9600    0.0000 H   0  0  0  0  0  0  0  0  0  0  0  0
   25.3858   -7.6217    0.0000 H   0  0  0  0  0  0  0  0  0  0  0  0
  1  2  1  0
  2  3  1  0
  3  4  2  0
  4  5  1  0
  5  6  2  0
  6  7  1  0
  7  8  2  0
  7  9  1  0
  9 10  1  0
 10 11  1  0
 11 12  2  0
  9 13  1  0
 13 14  1  0
 14 15  2  0
 15 16  1  0
 16 17  2  0
 17 18  1  0
 16 19  1  0
 14 20  1  0
 20 21  1  0
 21 22  2  0
 22 23  1  0
 23 24  2  0
 24 25  1  0
 25 26  2  0
 25 27  1  0
  1 28  2  0
  1 29  1  0
 29 30  1  0
 30 31  1  0
 31 32  1  0
 32 33  2  0
 32 34  1  0
 34 35  1  0
 35 36  1  0
 36 37  1  0
 37 38  1  0
 38 39  2  0
 38 40  1  0
 35 41  1  0
 41 42  2  0
 41 43  1  0
 43 44  1  0
 44 45  1  0
 45 46  1  0
 46 47  1  0
 46 48  2  0
 44 49  1  0
 49 50  2  0
 49 51  1  0
 51 52  1  0
 52 53  1  0
 53 54  1  0
 54 55  1  0
 55 56  1  0
 56 57  2  0
 56 58  1  0
 58 59  1  0
 59 60  1  0
 60 61  1  0
 61 62  1  0
 62 63  2  0
 62 64  1  0
 59 65  1  0
 65 66  2  0
 65 67  1  0
 67 68  1  0
 68 69  1  0
 69 70  1  0
 68 71  1  0
 71 72  2  0
 71 73  1  0
 73 74  1  0
 74 75  1  0
 75 76  1  0
 75 77  1  0
 77 78  1  0
 74 79  1  0
 79 80  2  0
 79 81  1  0
 81 82  1  0
 82 83  1  0
 83 84  1  0
 84 85  1  0
 84 86  1  0
 82 87  1  0
 87 88  2  0
 87 89  1  0
 89 90  1  0
 90 91  1  0
 91 92  1  0
 92 93  2  0
 92 94  1  0
 90 95  1  0
 95 96  2  0
 95 97  1  0
 98 97  1  6
 98 99  1  0
 99100  1  0
100101  1  0
101102  1  0
 98103  1  0
 98104  1  0
104105  2  0
104106  1  0
106107  1  0
107108  1  0
108109  1  0
109110  2  0
110111  1  0
111112  1  0
112113  2  0
107114  1  0
114115  2  0
114116  1  0
116117  1  0
117118  1  0
118119  1  0
117120  1  0
120121  2  0
120122  1  0
122123  1  0
123124  1  0
124125  1  0
125126  1  0
126127  1  0
126128  2  0
123129  1  0
129130  2  0
129131  1  0
131132  1  0
132133  1  0
133134  1  0
134135  1  0
135136  1  0
132137  1  0
132138  1  6
138139  2  0
138140  1  0
140141  1  0
141142  1  0
142143  1  0
141144  1  0
144145  2  0
144146  1  0
146147  1  0
147148  1  0
148149  1  0
149150  1  0
150151  1  0
147152  1  0
152153  2  0
152154  1  0
  8  3  1  0
 55 51  1  0
113109  1  0
 11  6  1  0
102136  2  0
 18 13  2  0
 22  9  1  0
 26 21  1  0
  2155  1  0
  4156  1  0
  5157  1  0
  8158  1  0
 15159  1  0
 17160  1  0
 18161  1  0
 19162  1  0
 23163  1  0
 24164  1  0
 26165  1  0
 27166  1  0
 29167  1  0
 30168  1  0
 30169  1  0
 31170  1  0
 31171  1  0
 34172  1  0
 35173  1  1
 36174  1  0
 36175  1  0
 37176  1  0
 37177  1  0
 43178  1  0
 44179  1  6
 45180  1  0
 45181  1  0
 47182  1  0
 47183  1  0
 52184  1  0
 52185  1  0
 53186  1  0
 53187  1  0
 54188  1  0
 54189  1  0
 55190  1  0
 58191  1  0
 59192  1  1
 60193  1  0
 60194  1  0
 61195  1  0
 61196  1  0
 67197  1  0
 68198  1  6
 69199  1  0
 69200  1  0
 70201  1  0
 73202  1  0
 74203  1  1
 75204  1  1
 76205  1  0
 76206  1  0
 76207  1  0
 77208  1  0
 77209  1  0
 78210  1  0
 78211  1  0
 78212  1  0
 81213  1  0
 82214  1  6
 83215  1  0
 83216  1  0
 84217  1  0
 85218  1  0
 85219  1  0
 85220  1  0
 86221  1  0
 86222  1  0
 86223  1  0
 89224  1  0
 90225  1  1
 91226  1  0
 91227  1  0
 97228  1  0
 99229  1  0
 99230  1  0
100231  1  0
100232  1  0
101233  1  0
101234  1  0
102235  1  0
103236  1  0
103237  1  0
103238  1  0
106239  1  0
107240  1  1
108241  1  0
108242  1  0
110243  1  0
111244  1  0
112245  1  0
116246  1  0
117247  1  1
118248  1  0
118249  1  0
119250  1  0
119251  1  0
119252  1  0
122253  1  0
123254  1  1
124255  1  0
124256  1  0
125257  1  0
125258  1  0
127259  1  0
127260  1  0
131261  1  0
133262  1  0
133263  1  0
134264  1  0
134265  1  0
135266  1  0
135267  1  0
136268  1  0
137269  1  0
137270  1  0
137271  1  0
140272  1  0
141273  1  6
142274  1  0
142275  1  0
143276  1  0
143277  1  0
143278  1  0
146279  1  0
147280  1  1
148281  1  0
148282  1  0
149283  1  0
149284  1  0
151285  1  0
151286  1  0
151287  1  0
M  CHG  4  40  -1  64  -1  94  -1 154  -1
M  END
