
     RDKit          2D

252260  0  0  0  0  0  0  0  0999 V2000
  -17.7690   -0.4287    0.0000 C   0  0  0  0  0  0  0  0  0  0  0  0
  -19.0332   -1.2360    0.0000 N   0  0  0  0  0  0  0  0  0  0  0  0
  -20.3645   -0.5448    0.0000 C   0  0  0  0  0  0  0  0  0  0  0  0
  -20.4315    0.9537    0.0000 C   0  0  0  0  0  0  0  0  0  0  0  0
  -21.7628    1.6449    0.0000 C   0  0  0  0  0  0  0  0  0  0  0  0
  -23.0270    0.8376    0.0000 C   0  0  0  0  0  0  0  0  0  0  0  0
  -22.9600   -0.6609    0.0000 C   0  0  0  0  0  0  0  0  0  0  0  0
  -21.6287   -1.3521    0.0000 C   0  0  0  0  0  0  0  0  0  0  0  0
  -24.3644   -1.1878    0.0000 C   0  0  0  0  0  0  0  0  0  0  0  0
  -25.2994   -0.0149    0.0000 O   0  0  0  0  0  0  0  0  0  0  0  0
  -24.4729    1.2369    0.0000 C   0  0  0  0  0  0  0  0  0  0  0  0
  -24.9997    2.6413    0.0000 O   0  0  0  0  0  0  0  0  0  0  0  0
  -25.8162   -1.5649    0.0000 C   0  0  0  0  0  0  0  0  0  0  0  0
  -26.2155   -3.0108    0.0000 C   0  0  0  0  0  0  0  0  0  0  0  0
  -27.6673   -3.3879    0.0000 C   0  0  0  0  0  0  0  0  0  0  0  0
  -28.7199   -2.3192    0.0000 C   0  0  0  0  0  0  0  0  0  0  0  0
  -28.3206   -0.8733    0.0000 C   0  0  0  0  0  0  0  0  0  0  0  0
  -26.8687   -0.4962    0.0000 C   0  0  0  0  0  0  0  0  0  0  0  0
  -30.1717   -2.6963    0.0000 O   0  0  0  0  0  0  0  0  0  0  0  0
  -25.1630   -4.0795    0.0000 O   0  0  0  0  0  0  0  0  0  0  0  0
  -23.7112   -3.7024    0.0000 C   0  0  0  0  0  0  0  0  0  0  0  0
  -23.3119   -2.2565    0.0000 C   0  0  0  0  0  0  0  0  0  0  0  0
  -22.0464   -2.5541    0.0000 C   0  0  0  0  0  0  0  0  0  0  0  0
  -21.4851   -3.1241    0.0000 C   0  0  0  0  0  0  0  0  0  0  0  0
  -21.6980   -3.8952    0.0000 C   0  0  0  0  0  0  0  0  0  0  0  0
  -22.4723   -4.0964    0.0000 C   0  0  0  0  0  0  0  0  0  0  0  0
  -20.1543   -5.4627    0.0000 O   0  0  0  0  0  0  0  0  0  0  0  0
  -17.8361    1.0698    0.0000 S   0  0  0  0  0  0  0  0  0  0  0  0
  -16.4377   -1.1199    0.0000 N   0  0  0  0  0  0  0  0  0  0  0  0
  -15.1735   -0.3126    0.0000 C   0  0  0  0  0  0  0  0  0  0  0  0
  -13.8423   -1.0037    0.0000 C   0  0  0  0  0  0  0  0  0  0  0  0
  -12.5781   -0.1964    0.0000 C   0  0  0  0  0  0  0  0  0  0  0  0
  -12.6451    1.3021    0.0000 O   0  0  0  0  0  0  0  0  0  0  0  0
  -11.2468   -0.8876    0.0000 N   0  0  0  0  0  0  0  0  0  0  0  0
   -9.9826   -0.0803    0.0000 C   0  0  0  0  0  0  0  0  0  0  0  0
   -9.0707    1.1107    0.0000 C   0  0  0  0  0  0  0  0  0  0  0  0
   -7.5833    0.9165    0.0000 C   0  0  0  0  0  0  0  0  0  0  0  0
   -6.6715    2.1075    0.0000 C   0  0  0  0  0  0  0  0  0  0  0  0
   -5.1841    1.9133    0.0000 N   0  0  0  0  0  0  0  0  0  0  0  0
   -4.2722    3.1044    0.0000 C   0  0  0  0  0  0  0  0  0  0  0  0
   -2.8196    2.7303    0.0000 N   0  0  0  0  0  0  0  0  0  0  0  0
   -4.8478    4.4896    0.0000 N   0  0  0  0  0  0  0  0  0  0  0  0
   -8.6513   -0.7715    0.0000 C   0  0  0  0  0  0  0  0  0  0  0  0
   -8.5843   -2.2700    0.0000 O   0  0  0  0  0  0  0  0  0  0  0  0
   -7.3871    0.0358    0.0000 N   0  0  0  0  0  0  0  0  0  0  0  0
   -6.0558   -0.6554    0.0000 C   0  0  0  0  0  0  0  0  0  0  0  0
   -5.0413   -1.7602    0.0000 C   0  0  0  0  0  0  0  0  0  0  0  0
   -5.4908   -3.1913    0.0000 C   0  0  0  0  0  0  0  0  0  0  0  0
   -4.4762   -4.2961    0.0000 C   0  0  0  0  0  0  0  0  0  0  0  0
   -4.9257   -5.7271    0.0000 N   0  0  0  0  0  0  0  0  0  0  0  0
   -3.9111   -6.8320    0.0000 C   0  0  0  0  0  0  0  0  0  0  0  0
   -4.3606   -8.2630    0.0000 N   0  0  0  0  0  0  0  0  0  0  0  0
   -2.4470   -6.5057    0.0000 N   0  0  0  0  0  0  0  0  0  0  0  0
   -4.7916    0.1519    0.0000 C   0  0  0  0  0  0  0  0  0  0  0  0
   -4.5747    1.2237    0.0000 O   0  0  0  0  0  0  0  0  0  0  0  0
   -3.4603   -0.5393    0.0000 N   0  0  0  0  0  0  0  0  0  0  0  0
   -2.1961    0.2681    0.0000 C   0  0  0  0  0  0  0  0  0  0  0  0
   -1.2843    1.4591    0.0000 C   0  0  0  0  0  0  0  0  0  0  0  0
    0.2031    1.2649    0.0000 C   0  0  0  0  0  0  0  0  0  0  0  0
    0.7786   -0.1203    0.0000 C   0  0  0  0  0  0  0  0  0  0  0  0
   -0.1715   -0.8776    0.0000 F   0  0  0  0  0  0  0  0  0  0  0  0
    2.2660   -0.3145    0.0000 C   0  0  0  0  0  0  0  0  0  0  0  0
    3.1596   -1.5193    0.0000 F   0  0  0  0  0  0  0  0  0  0  0  0
    3.1779    0.8765    0.0000 C   0  0  0  0  0  0  0  0  0  0  0  0
    4.6652    0.6823    0.0000 F   0  0  0  0  0  0  0  0  0  0  0  0
    2.6023    2.2617    0.0000 C   0  0  0  0  0  0  0  0  0  0  0  0
    3.7753    3.1967    0.0000 F   0  0  0  0  0  0  0  0  0  0  0  0
    1.1150    2.4559    0.0000 C   0  0  0  0  0  0  0  0  0  0  0  0
    0.2214    3.6607    0.0000 F   0  0  0  0  0  0  0  0  0  0  0  0
   -0.8649   -0.4231    0.0000 C   0  0  0  0  0  0  0  0  0  0  0  0
   -1.1624   -1.8933    0.0000 O   0  0  0  0  0  0  0  0  0  0  0  0
    0.3993    0.3842    0.0000 N   0  0  0  0  0  0  0  0  0  0  0  0
    1.7306   -0.3070    0.0000 C   0  0  0  0  0  0  0  0  0  0  0  0
    2.0932   -1.7625    0.0000 C   0  0  0  0  0  0  0  0  0  0  0  0
    2.8688   -3.0465    0.0000 C   0  0  0  0  0  0  0  0  0  0  0  0
    3.9883   -4.0448    0.0000 C   0  0  0  0  0  0  0  0  0  0  0  0
    5.3524   -4.6687    0.0000 C   0  0  0  0  0  0  0  0  0  0  0  0
    0.5531   -1.2362    0.0000 C   0  0  0  0  0  0  0  0  0  0  0  0
    1.8131    1.1907    0.0000 C   0  0  0  0  0  0  0  0  0  0  0  0
    0.5512    2.0017    0.0000 O   0  0  0  0  0  0  0  0  0  0  0  0
    2.3334    2.5976    0.0000 N   0  0  0  0  0  0  0  0  0  0  0  0
    3.2453    3.7886    0.0000 C   0  0  0  0  0  0  0  0  0  0  0  0
    2.9556    5.2604    0.0000 C   0  0  0  0  0  0  0  0  0  0  0  0
    1.5362    5.7454    0.0000 C   0  0  0  0  0  0  0  0  0  0  0  0
    1.2466    7.2172    0.0000 C   0  0  0  0  0  0  0  0  0  0  0  0
   -0.1728    7.7023    0.0000 N   0  0  0  0  0  0  0  0  0  0  0  0
   -0.4625    9.1740    0.0000 C   0  0  0  0  0  0  0  0  0  0  0  0
   -1.8819    9.6591    0.0000 N   0  0  0  0  0  0  0  0  0  0  0  0
    0.6673   10.1608    0.0000 N   0  0  0  0  0  0  0  0  0  0  0  0
    4.4677    4.6579    0.0000 C   0  0  0  0  0  0  0  0  0  0  0  0
    3.7902    5.9963    0.0000 O   0  0  0  0  0  0  0  0  0  0  0  0
    5.8920    5.1283    0.0000 N   0  0  0  0  0  0  0  0  0  0  0  0
    7.3917    5.1580    0.0000 C   0  0  0  0  0  0  0  0  0  0  0  0
    8.3618    6.3021    0.0000 C   0  0  0  0  0  0  0  0  0  0  0  0
    7.8560    7.7142    0.0000 C   0  0  0  0  0  0  0  0  0  0  0  0
    8.8261    8.8583    0.0000 C   0  0  0  0  0  0  0  0  0  0  0  0
    6.8978    8.8683    0.0000 C   0  0  0  0  0  0  0  0  0  0  0  0
    8.8335    4.7443    0.0000 C   0  0  0  0  0  0  0  0  0  0  0  0
    9.4575    6.1084    0.0000 O   0  0  0  0  0  0  0  0  0  0  0  0
   10.0893    3.9240    0.0000 N   0  0  0  0  0  0  0  0  0  0  0  0
   11.0476    2.7700    0.0000 C   0  0  0  0  0  0  0  0  0  0  0  0
   12.5469    2.7248    0.0000 C   0  0  0  0  0  0  0  0  0  0  0  0
   13.3357    4.0007    0.0000 C   0  0  0  0  0  0  0  0  0  0  0  0
   14.8350    3.9556    0.0000 C   0  0  0  0  0  0  0  0  0  0  0  0
   15.6237    5.2315    0.0000 C   0  0  0  0  0  0  0  0  0  0  0  0
   14.9131    6.5525    0.0000 C   0  0  0  0  0  0  0  0  0  0  0  0
   13.4138    6.5976    0.0000 C   0  0  0  0  0  0  0  0  0  0  0  0
   12.6251    5.3217    0.0000 C   0  0  0  0  0  0  0  0  0  0  0  0
   11.6231    1.3848    0.0000 C   0  0  0  0  0  0  0  0  0  0  0  0
   13.0786    1.7474    0.0000 O   0  0  0  0  0  0  0  0  0  0  0  0
   11.7648   -0.1085    0.0000 N   0  0  0  0  0  0  0  0  0  0  0  0
   11.4600   -1.5772    0.0000 C   0  0  0  0  0  0  0  0  0  0  0  0
   10.7358   -2.8908    0.0000 C   0  0  0  0  0  0  0  0  0  0  0  0
    9.6566   -3.9327    0.0000 C   0  0  0  0  0  0  0  0  0  0  0  0
    8.3183   -4.6101    0.0000 C   0  0  0  0  0  0  0  0  0  0  0  0
    6.8398   -4.8629    0.0000 C   0  0  0  0  0  0  0  0  0  0  0  0
   12.9241   -1.2510    0.0000 C   0  0  0  0  0  0  0  0  0  0  0  0
   12.3595   -2.7776    0.0000 C   0  0  0  0  0  0  0  0  0  0  0  0
   12.1210   -4.2585    0.0000 O   0  0  0  0  0  0  0  0  0  0  0  0
   13.8488   -2.5987    0.0000 N   0  0  0  0  0  0  0  0  0  0  0  0
   14.7483   -3.7991    0.0000 C   0  0  0  0  0  0  0  0  0  0  0  0
   15.1831   -5.2347    0.0000 C   0  0  0  0  0  0  0  0  0  0  0  0
   14.1572   -6.3290    0.0000 O   0  0  0  0  0  0  0  0  0  0  0  0
   16.2376   -3.6203    0.0000 C   0  0  0  0  0  0  0  0  0  0  0  0
   16.8274   -2.2411    0.0000 O   0  0  0  0  0  0  0  0  0  0  0  0
   17.1372   -4.8206    0.0000 N   0  0  0  0  0  0  0  0  0  0  0  0
   18.6265   -4.6418    0.0000 C   0  0  0  0  0  0  0  0  0  0  0  0
   19.9648   -3.9643    0.0000 C   0  0  0  0  0  0  0  0  0  0  0  0
   21.2206   -4.7846    0.0000 C   0  0  0  0  0  0  0  0  0  0  0  0
   21.1381   -6.2824    0.0000 C   0  0  0  0  0  0  0  0  0  0  0  0
   22.3939   -7.1027    0.0000 C   0  0  0  0  0  0  0  0  0  0  0  0
   23.7323   -6.4253    0.0000 C   0  0  0  0  0  0  0  0  0  0  0  0
   24.9881   -7.2456    0.0000 O   0  0  0  0  0  0  0  0  0  0  0  0
   23.8148   -4.9275    0.0000 C   0  0  0  0  0  0  0  0  0  0  0  0
   22.5589   -4.1072    0.0000 C   0  0  0  0  0  0  0  0  0  0  0  0
   19.5260   -5.8421    0.0000 C   0  0  0  0  0  0  0  0  0  0  0  0
   21.0143   -6.0290    0.0000 O   0  0  0  0  0  0  0  0  0  0  0  0
   18.7725   -7.1391    0.0000 O   0  0  0  0  0  0  0  0  0  0  0  0
  -18.7840   -2.7152    0.0000 H   0  0  0  0  0  0  0  0  0  0  0  0
  -19.1673    1.7610    0.0000 H   0  0  0  0  0  0  0  0  0  0  0  0
  -21.8298    3.1434    0.0000 H   0  0  0  0  0  0  0  0  0  0  0  0
  -21.2011   -2.7899    0.0000 H   0  0  0  0  0  0  0  0  0  0  0  0
  -28.0666   -4.8338    0.0000 H   0  0  0  0  0  0  0  0  0  0  0  0
  -29.3731    0.1955    0.0000 H   0  0  0  0  0  0  0  0  0  0  0  0
  -26.4694    0.9497    0.0000 H   0  0  0  0  0  0  0  0  0  0  0  0
  -31.2242   -1.6276    0.0000 H   0  0  0  0  0  0  0  0  0  0  0  0
  -21.4608   -0.4335    0.0000 H   0  0  0  0  0  0  0  0  0  0  0  0
  -19.3206   -2.7508    0.0000 H   0  0  0  0  0  0  0  0  0  0  0  0
  -23.0580   -6.2170    0.0000 H   0  0  0  0  0  0  0  0  0  0  0  0
  -20.5536   -6.9086    0.0000 H   0  0  0  0  0  0  0  0  0  0  0  0
  -16.3707   -2.6184    0.0000 H   0  0  0  0  0  0  0  0  0  0  0  0
  -14.2617    0.8785    0.0000 H   0  0  0  0  0  0  0  0  0  0  0  0
  -16.1881    0.7923    0.0000 H   0  0  0  0  0  0  0  0  0  0  0  0
  -12.8277   -2.1086    0.0000 H   0  0  0  0  0  0  0  0  0  0  0  0
  -14.7541   -2.1948    0.0000 H   0  0  0  0  0  0  0  0  0  0  0  0
  -11.1797   -2.3861    0.0000 H   0  0  0  0  0  0  0  0  0  0  0  0
  -10.9971    1.0245    0.0000 H   0  0  0  0  0  0  0  0  0  0  0  0
   -8.7990    2.5859    0.0000 H   0  0  0  0  0  0  0  0  0  0  0  0
  -10.4020    1.8019    0.0000 H   0  0  0  0  0  0  0  0  0  0  0  0
   -6.2521    0.2253    0.0000 H   0  0  0  0  0  0  0  0  0  0  0  0
   -7.3082   -0.5580    0.0000 H   0  0  0  0  0  0  0  0  0  0  0  0
   -6.2220    3.5386    0.0000 H   0  0  0  0  0  0  0  0  0  0  0  0
   -7.9086    2.9558    0.0000 H   0  0  0  0  0  0  0  0  0  0  0  0
   -4.2905    0.7086    0.0000 H   0  0  0  0  0  0  0  0  0  0  0  0
   -1.8730    4.1012    0.0000 H   0  0  0  0  0  0  0  0  0  0  0  0
   -3.9359    5.6806    0.0000 H   0  0  0  0  0  0  0  0  0  0  0  0
   -6.3351    4.6837    0.0000 H   0  0  0  0  0  0  0  0  0  0  0  0
   -7.0895    1.5060    0.0000 H   0  0  0  0  0  0  0  0  0  0  0  0
   -7.1061   -1.7264    0.0000 H   0  0  0  0  0  0  0  0  0  0  0  0
   -3.7100   -2.4514    0.0000 H   0  0  0  0  0  0  0  0  0  0  0  0
   -3.8683   -0.8252    0.0000 H   0  0  0  0  0  0  0  0  0  0  0  0
   -6.4026   -4.3823    0.0000 H   0  0  0  0  0  0  0  0  0  0  0  0
   -6.8964   -2.6675    0.0000 H   0  0  0  0  0  0  0  0  0  0  0  0
   -3.1449   -4.9873    0.0000 H   0  0  0  0  0  0  0  0  0  0  0  0
   -3.4260   -3.2251    0.0000 H   0  0  0  0  0  0  0  0  0  0  0  0
   -6.3898   -6.0534    0.0000 H   0  0  0  0  0  0  0  0  0  0  0  0
   -3.3461   -9.3679    0.0000 H   0  0  0  0  0  0  0  0  0  0  0  0
   -1.4325   -7.6106    0.0000 H   0  0  0  0  0  0  0  0  0  0  0  0
   -1.9975   -5.0747    0.0000 H   0  0  0  0  0  0  0  0  0  0  0  0
   -3.2111   -2.0184    0.0000 H   0  0  0  0  0  0  0  0  0  0  0  0
   -3.2107    1.3729    0.0000 H   0  0  0  0  0  0  0  0  0  0  0  0
   -0.8348    2.8901    0.0000 H   0  0  0  0  0  0  0  0  0  0  0  0
   -2.6899    1.9828    0.0000 H   0  0  0  0  0  0  0  0  0  0  0  0
    0.5155    1.8797    0.0000 H   0  0  0  0  0  0  0  0  0  0  0  0
    0.5964   -1.8595    0.0000 H   0  0  0  0  0  0  0  0  0  0  0  0
    1.2419   -2.9975    0.0000 H   0  0  0  0  0  0  0  0  0  0  0  0
    1.4670   -3.5804    0.0000 H   0  0  0  0  0  0  0  0  0  0  0  0
    2.2482   -4.4121    0.0000 H   0  0  0  0  0  0  0  0  0  0  0  0
    2.7025   -4.8172    0.0000 H   0  0  0  0  0  0  0  0  0  0  0  0
    3.9806   -5.5448    0.0000 H   0  0  0  0  0  0  0  0  0  0  0  0
    4.9387   -6.1106    0.0000 H   0  0  0  0  0  0  0  0  0  0  0  0
    0.4034   -2.7287    0.0000 H   0  0  0  0  0  0  0  0  0  0  0  0
   -0.7151   -2.0372    0.0000 H   0  0  0  0  0  0  0  0  0  0  0  0
   -0.4561   -0.1264    0.0000 H   0  0  0  0  0  0  0  0  0  0  0  0
    1.1178    3.4765    0.0000 H   0  0  0  0  0  0  0  0  0  0  0  0
    1.7539    3.9493    0.0000 H   0  0  0  0  0  0  0  0  0  0  0  0
    3.3658    6.7032    0.0000 H   0  0  0  0  0  0  0  0  0  0  0  0
    4.4036    5.6521    0.0000 H   0  0  0  0  0  0  0  0  0  0  0  0
    0.0365    5.7158    0.0000 H   0  0  0  0  0  0  0  0  0  0  0  0
    0.9532    4.3634    0.0000 H   0  0  0  0  0  0  0  0  0  0  0  0
    1.4778    8.6993    0.0000 H   0  0  0  0  0  0  0  0  0  0  0  0
    2.7315    7.4295    0.0000 H   0  0  0  0  0  0  0  0  0  0  0  0
   -1.3026    6.7155    0.0000 H   0  0  0  0  0  0  0  0  0  0  0  0
   -2.1715   11.1309    0.0000 H   0  0  0  0  0  0  0  0  0  0  0  0
    0.3777   11.6325    0.0000 H   0  0  0  0  0  0  0  0  0  0  0  0
    2.0867    9.6757    0.0000 H   0  0  0  0  0  0  0  0  0  0  0  0
    5.6391    6.6069    0.0000 H   0  0  0  0  0  0  0  0  0  0  0  0
    6.5875    6.4242    0.0000 H   0  0  0  0  0  0  0  0  0  0  0  0
    9.7456    6.8810    0.0000 H   0  0  0  0  0  0  0  0  0  0  0  0
    9.5708    5.4142    0.0000 H   0  0  0  0  0  0  0  0  0  0  0  0
    6.4723    7.1353    0.0000 H   0  0  0  0  0  0  0  0  0  0  0  0
    8.4963   10.3216    0.0000 H   0  0  0  0  0  0  0  0  0  0  0  0
   10.1290    9.6016    0.0000 H   0  0  0  0  0  0  0  0  0  0  0  0
    9.9179    7.8297    0.0000 H   0  0  0  0  0  0  0  0  0  0  0  0
    7.2427   10.3281    0.0000 H   0  0  0  0  0  0  0  0  0  0  0  0
    5.6026    9.6250    0.0000 H   0  0  0  0  0  0  0  0  0  0  0  0
    5.9277    7.7242    0.0000 H   0  0  0  0  0  0  0  0  0  0  0  0
   10.9437    5.1569    0.0000 H   0  0  0  0  0  0  0  0  0  0  0  0
   11.7054    4.1181    0.0000 H   0  0  0  0  0  0  0  0  0  0  0  0
   13.9404    2.1696    0.0000 H   0  0  0  0  0  0  0  0  0  0  0  0
   12.6066    1.2260    0.0000 H   0  0  0  0  0  0  0  0  0  0  0  0
   15.5456    2.6346    0.0000 H   0  0  0  0  0  0  0  0  0  0  0  0
   17.1230    5.1864    0.0000 H   0  0  0  0  0  0  0  0  0  0  0  0
   15.7019    7.8284    0.0000 H   0  0  0  0  0  0  0  0  0  0  0  0
   12.7032    7.9186    0.0000 H   0  0  0  0  0  0  0  0  0  0  0  0
   11.1424    5.5493    0.0000 H   0  0  0  0  0  0  0  0  0  0  0  0
   13.2625   -0.1910    0.0000 H   0  0  0  0  0  0  0  0  0  0  0  0
   11.2416   -4.3030    0.0000 H   0  0  0  0  0  0  0  0  0  0  0  0
   12.1576   -3.3689    0.0000 H   0  0  0  0  0  0  0  0  0  0  0  0
    9.9058   -5.4118    0.0000 H   0  0  0  0  0  0  0  0  0  0  0  0
   10.8743   -4.8085    0.0000 H   0  0  0  0  0  0  0  0  0  0  0  0
    7.9407   -6.0618    0.0000 H   0  0  0  0  0  0  0  0  0  0  0  0
    9.3628   -5.6867    0.0000 H   0  0  0  0  0  0  0  0  0  0  0  0
    6.8694   -6.3626    0.0000 H   0  0  0  0  0  0  0  0  0  0  0  0
   14.1758   -2.0775    0.0000 H   0  0  0  0  0  0  0  0  0  0  0  0
   14.0804   -0.2956    0.0000 H   0  0  0  0  0  0  0  0  0  0  0  0
   12.7008    0.2323    0.0000 H   0  0  0  0  0  0  0  0  0  0  0  0
   14.6023   -1.3017    0.0000 H   0  0  0  0  0  0  0  0  0  0  0  0
   13.4100   -4.4765    0.0000 H   0  0  0  0  0  0  0  0  0  0  0  0
   15.9296   -6.5358    0.0000 H   0  0  0  0  0  0  0  0  0  0  0  0
   16.6455   -4.9013    0.0000 H   0  0  0  0  0  0  0  0  0  0  0  0
   14.5919   -7.7646    0.0000 H   0  0  0  0  0  0  0  0  0  0  0  0
   16.7199   -6.2614    0.0000 H   0  0  0  0  0  0  0  0  0  0  0  0
   18.1917   -3.2062    0.0000 H   0  0  0  0  0  0  0  0  0  0  0  0
   20.9907   -2.8700    0.0000 H   0  0  0  0  0  0  0  0  0  0  0  0
   19.0653   -2.7640    0.0000 H   0  0  0  0  0  0  0  0  0  0  0  0
   19.8924   -7.1179    0.0000 H   0  0  0  0  0  0  0  0  0  0  0  0
   22.3115   -8.6004    0.0000 H   0  0  0  0  0  0  0  0  0  0  0  0
   26.3264   -6.5681    0.0000 H   0  0  0  0  0  0  0  0  0  0  0  0
   25.1531   -4.2501    0.0000 H   0  0  0  0  0  0  0  0  0  0  0  0
   22.6414   -2.6095    0.0000 H   0  0  0  0  0  0  0  0  0  0  0  0
   19.8358   -8.4217    0.0000 H   0  0  0  0  0  0  0  0  0  0  0  0
  1  2  1  0
  2  3  1  0
  3  4  2  0
  4  5  1  0
  5  6  2  0
  6  7  1  0
  7  8  2  0
  7  9  1  0
  9 10  1  0
 10 11  1  0
 11 12  2  0
  9 13  1  0
 13 14  1  0
 14 15  2  0
 15 16  1  0
 16 17  2  0
 17 18  1  0
 16 19  1  0
 14 20  1  0
 20 21  1  0
 21 22  2  0
 22 23  1  0
 23 24  2  0
 24 25  1  0
 25 26  2  0
 25 27  1  0
  1 28  2  0
  1 29  1  0
 29 30  1  0
 30 31  1  0
 31 32  1  0
 32 33  2  0
 32 34  1  0
 34 35  1  0
 35 36  1  0
 36 37  1  0
 37 38  1  0
 38 39  1  0
 39 40  1  0
 40 41  2  3
 40 42  1  0
 35 43  1  0
 43 44  2  0
 43 45  1  0
 45 46  1  0
 46 47  1  0
 47 48  1  0
 48 49  1  0
 49 50  1  0
 50 51  1  0
 51 52  2  3
 51 53  1  0
 46 54  1  0
 54 55  2  0
 54 56  1  0
 56 57  1  0
 57 58  1  0
 58 59  1  0
 59 60  2  0
 60 61  1  0
 60 62  1  0
 62 63  1  0
 62 64  2  0
 64 65  1  0
 64 66  1  0
 66 67  1  0
 66 68  2  0
 68 69  1  0
 57 70  1  0
 70 71  2  0
 70 72  1  0
 73 72  1  6
 73 74  1  0
 74 75  1  0
 75 76  1  0
 76 77  1  0
 73 78  1  0
 73 79  1  0
 79 80  2  0
 79 81  1  0
 81 82  1  0
 82 83  1  0
 83 84  1  0
 84 85  1  0
 85 86  1  0
 86 87  1  0
 87 88  2  3
 87 89  1  0
 82 90  1  0
 90 91  2  0
 90 92  1  0
 92 93  1  0
 93 94  1  0
 94 95  1  0
 95 96  1  0
 95 97  1  0
 93 98  1  0
 98 99  2  0
 98100  1  0
100101  1  0
101102  1  0
102103  1  0
103104  2  0
104105  1  0
105106  2  0
106107  1  0
107108  2  0
101109  1  0
109110  2  0
109111  1  0
111112  1  0
112113  1  0
113114  1  0
114115  1  0
115116  1  0
112117  1  0
112118  1  6
118119  2  0
118120  1  0
120121  1  0
121122  1  0
122123  1  0
121124  1  0
124125  2  0
124126  1  0
126127  1  0
127128  1  0
128129  1  0
129130  2  0
130131  1  0
131132  2  0
132133  1  0
132134  1  0
134135  2  0
127136  1  0
136137  2  0
136138  1  0
  8  3  1  0
 68 59  1  0
108103  1  0
135129  1  0
 11  6  1  0
 77116  2  0
 18 13  2  0
 22  9  1  0
 26 21  1  0
  2139  1  0
  4140  1  0
  5141  1  0
  8142  1  0
 15143  1  0
 17144  1  0
 18145  1  0
 19146  1  0
 23147  1  0
 24148  1  0
 26149  1  0
 27150  1  0
 29151  1  0
 30152  1  0
 30153  1  0
 31154  1  0
 31155  1  0
 34156  1  0
 35157  1  1
 36158  1  0
 36159  1  0
 37160  1  0
 37161  1  0
 38162  1  0
 38163  1  0
 39164  1  0
 41165  1  0
 42166  1  0
 42167  1  0
 45168  1  0
 46169  1  6
 47170  1  0
 47171  1  0
 48172  1  0
 48173  1  0
 49174  1  0
 49175  1  0
 50176  1  0
 52177  1  0
 53178  1  0
 53179  1  0
 56180  1  0
 57181  1  6
 58182  1  0
 58183  1  0
 72184  1  0
 74185  1  0
 74186  1  0
 75187  1  0
 75188  1  0
 76189  1  0
 76190  1  0
 77191  1  0
 78192  1  0
 78193  1  0
 78194  1  0
 81195  1  0
 82196  1  1
 83197  1  0
 83198  1  0
 84199  1  0
 84200  1  0
 85201  1  0
 85202  1  0
 86203  1  0
 88204  1  0
 89205  1  0
 89206  1  0
 92207  1  0
 93208  1  1
 94209  1  0
 94210  1  0
 95211  1  0
 96212  1  0
 96213  1  0
 96214  1  0
 97215  1  0
 97216  1  0
 97217  1  0
100218  1  0
101219  1  1
102220  1  0
102221  1  0
104222  1  0
105223  1  0
106224  1  0
107225  1  0
108226  1  0
111227  1  0
113228  1  0
113229  1  0
114230  1  0
114231  1  0
115232  1  0
115233  1  0
116234  1  0
117235  1  0
117236  1  0
117237  1  0
120238  1  0
121239  1  6
122240  1  0
122241  1  0
123242  1  0
126243  1  0
127244  1  1
128245  1  0
128246  1  0
130247  1  0
131248  1  0
133249  1  0
134250  1  0
135251  1  0
138252  1  0
M  END
