
     RDKit          2D

430436  0  0  0  0  0  0  0  0999 V2000
   26.7452    5.0477    0.0000 C   0  0  0  0  0  0  0  0  0  0  0  0
   26.4486    6.5181    0.0000 N   0  0  0  0  0  0  0  0  0  0  0  0
   27.5737    7.5102    0.0000 C   0  0  0  0  0  0  0  0  0  0  0  0
   28.9954    7.0319    0.0000 C   0  0  0  0  0  0  0  0  0  0  0  0
   30.1204    8.0239    0.0000 C   0  0  0  0  0  0  0  0  0  0  0  0
   29.8238    9.4943    0.0000 C   0  0  0  0  0  0  0  0  0  0  0  0
   28.4021    9.9726    0.0000 C   0  0  0  0  0  0  0  0  0  0  0  0
   27.2771    8.9805    0.0000 C   0  0  0  0  0  0  0  0  0  0  0  0
   28.4177   11.4725    0.0000 C   0  0  0  0  0  0  0  0  0  0  0  0
   29.8490   11.9212    0.0000 O   0  0  0  0  0  0  0  0  0  0  0  0
   30.7181   10.6986    0.0000 C   0  0  0  0  0  0  0  0  0  0  0  0
   32.2180   10.6830    0.0000 O   0  0  0  0  0  0  0  0  0  0  0  0
   28.5900   12.9626    0.0000 C   0  0  0  0  0  0  0  0  0  0  0  0
   27.3857   13.8568    0.0000 C   0  0  0  0  0  0  0  0  0  0  0  0
   27.5579   15.3469    0.0000 C   0  0  0  0  0  0  0  0  0  0  0  0
   28.9345   15.9428    0.0000 C   0  0  0  0  0  0  0  0  0  0  0  0
   30.1388   15.0485    0.0000 C   0  0  0  0  0  0  0  0  0  0  0  0
   29.9666   13.5585    0.0000 C   0  0  0  0  0  0  0  0  0  0  0  0
   29.1068   17.4328    0.0000 O   0  0  0  0  0  0  0  0  0  0  0  0
   26.0091   13.2610    0.0000 O   0  0  0  0  0  0  0  0  0  0  0  0
   25.8368   11.7709    0.0000 C   0  0  0  0  0  0  0  0  0  0  0  0
   27.0411   10.8767    0.0000 C   0  0  0  0  0  0  0  0  0  0  0  0
   26.3068    9.8039    0.0000 C   0  0  0  0  0  0  0  0  0  0  0  0
   25.5727    9.4861    0.0000 C   0  0  0  0  0  0  0  0  0  0  0  0
   24.9304    9.9631    0.0000 C   0  0  0  0  0  0  0  0  0  0  0  0
   25.0223   10.7578    0.0000 C   0  0  0  0  0  0  0  0  0  0  0  0
   22.9114    9.0892    0.0000 O   0  0  0  0  0  0  0  0  0  0  0  0
   28.1669    4.5694    0.0000 S   0  0  0  0  0  0  0  0  0  0  0  0
   25.6201    4.0557    0.0000 N   0  0  0  0  0  0  0  0  0  0  0  0
   25.9167    2.5853    0.0000 C   0  0  0  0  0  0  0  0  0  0  0  0
   24.7917    1.5932    0.0000 C   0  0  0  0  0  0  0  0  0  0  0  0
   25.0883    0.1228    0.0000 C   0  0  0  0  0  0  0  0  0  0  0  0
   25.8829    0.0590    0.0000 O   0  0  0  0  0  0  0  0  0  0  0  0
   23.9632   -0.8692    0.0000 N   0  0  0  0  0  0  0  0  0  0  0  0
   24.2598   -2.3396    0.0000 C   0  0  0  0  0  0  0  0  0  0  0  0
   25.6564   -1.7922    0.0000 C   0  0  0  0  0  0  0  0  0  0  0  0
   25.8805   -0.3090    0.0000 C   0  0  0  0  0  0  0  0  0  0  0  0
   27.2771    0.2384    0.0000 C   0  0  0  0  0  0  0  0  0  0  0  0
   25.5839    1.1613    0.0000 C   0  0  0  0  0  0  0  0  0  0  0  0
   24.0356   -3.8228    0.0000 C   0  0  0  0  0  0  0  0  0  0  0  0
   25.3996   -4.4470    0.0000 O   0  0  0  0  0  0  0  0  0  0  0  0
   22.6391   -4.3702    0.0000 N   0  0  0  0  0  0  0  0  0  0  0  0
   22.4149   -5.8534    0.0000 C   0  0  0  0  0  0  0  0  0  0  0  0
   23.9145   -5.8166    0.0000 C   0  0  0  0  0  0  0  0  0  0  0  0
   24.6324   -4.4996    0.0000 C   0  0  0  0  0  0  0  0  0  0  0  0
   26.1320   -4.4628    0.0000 C   0  0  0  0  0  0  0  0  0  0  0  0
   24.8566   -3.0164    0.0000 C   0  0  0  0  0  0  0  0  0  0  0  0
   21.6970   -7.1704    0.0000 C   0  0  0  0  0  0  0  0  0  0  0  0
   22.7652   -8.2235    0.0000 O   0  0  0  0  0  0  0  0  0  0  0  0
   20.1975   -7.2072    0.0000 N   0  0  0  0  0  0  0  0  0  0  0  0
   19.4796   -8.5242    0.0000 C   0  0  0  0  0  0  0  0  0  0  0  0
   20.9012   -9.0025    0.0000 C   0  0  0  0  0  0  0  0  0  0  0  0
   22.0263   -8.0105    0.0000 C   0  0  0  0  0  0  0  0  0  0  0  0
   22.0736   -9.9383    0.0000 C   0  0  0  0  0  0  0  0  0  0  0  0
   23.4701   -9.3908    0.0000 C   0  0  0  0  0  0  0  0  0  0  0  0
   18.3545   -9.5163    0.0000 C   0  0  0  0  0  0  0  0  0  0  0  0
   18.9981  -10.8712    0.0000 O   0  0  0  0  0  0  0  0  0  0  0  0
   16.9328   -9.0380    0.0000 N   0  0  0  0  0  0  0  0  0  0  0  0
   15.8077  -10.0301    0.0000 C   0  0  0  0  0  0  0  0  0  0  0  0
   16.9801  -10.9658    0.0000 C   0  0  0  0  0  0  0  0  0  0  0  0
   18.3766  -10.4183    0.0000 C   0  0  0  0  0  0  0  0  0  0  0  0
   19.5490  -11.3540    0.0000 C   0  0  0  0  0  0  0  0  0  0  0  0
   19.5017   -9.4263    0.0000 C   0  0  0  0  0  0  0  0  0  0  0  0
   14.4112  -10.5775    0.0000 C   0  0  0  0  0  0  0  0  0  0  0  0
   14.5525  -12.0708    0.0000 O   0  0  0  0  0  0  0  0  0  0  0  0
   13.2388   -9.6418    0.0000 N   0  0  0  0  0  0  0  0  0  0  0  0
   11.8423  -10.1892    0.0000 C   0  0  0  0  0  0  0  0  0  0  0  0
   12.6239  -11.4695    0.0000 C   0  0  0  0  0  0  0  0  0  0  0  0
   14.1234  -11.4327    0.0000 C   0  0  0  0  0  0  0  0  0  0  0  0
   14.9051  -12.7129    0.0000 C   0  0  0  0  0  0  0  0  0  0  0  0
   16.3979  -12.8592    0.0000 N   0  0  0  0  0  0  0  0  0  0  0  0
   14.1872  -14.0300    0.0000 O   0  0  0  0  0  0  0  0  0  0  0  0
   10.3427  -10.2260    0.0000 C   0  0  0  0  0  0  0  0  0  0  0  0
    9.9648  -11.6776    0.0000 O   0  0  0  0  0  0  0  0  0  0  0  0
    9.5611   -8.9457    0.0000 N   0  0  0  0  0  0  0  0  0  0  0  0
    8.0615   -8.9825    0.0000 C   0  0  0  0  0  0  0  0  0  0  0  0
    8.3582  -10.4529    0.0000 C   0  0  0  0  0  0  0  0  0  0  0  0
    9.7799  -10.9312    0.0000 C   0  0  0  0  0  0  0  0  0  0  0  0
   10.0765  -12.4016    0.0000 C   0  0  0  0  0  0  0  0  0  0  0  0
   11.4293  -13.0496    0.0000 N   0  0  0  0  0  0  0  0  0  0  0  0
    8.9514  -13.3937    0.0000 O   0  0  0  0  0  0  0  0  0  0  0  0
    6.6398   -8.5042    0.0000 C   0  0  0  0  0  0  0  0  0  0  0  0
    5.6441   -9.6260    0.0000 O   0  0  0  0  0  0  0  0  0  0  0  0
    6.3432   -7.0338    0.0000 N   0  0  0  0  0  0  0  0  0  0  0  0
    4.9215   -6.5555    0.0000 C   0  0  0  0  0  0  0  0  0  0  0  0
    4.6974   -8.0387    0.0000 C   0  0  0  0  0  0  0  0  0  0  0  0
    3.7492   -5.6198    0.0000 C   0  0  0  0  0  0  0  0  0  0  0  0
    2.4298   -6.3334    0.0000 O   0  0  0  0  0  0  0  0  0  0  0  0
    3.9733   -4.1366    0.0000 N   0  0  0  0  0  0  0  0  0  0  0  0
    2.8010   -3.2009    0.0000 C   0  0  0  0  0  0  0  0  0  0  0  0
    2.0831   -4.5180    0.0000 C   0  0  0  0  0  0  0  0  0  0  0  0
    2.7028   -5.8840    0.0000 C   0  0  0  0  0  0  0  0  0  0  0  0
    2.0193   -1.9207    0.0000 C   0  0  0  0  0  0  0  0  0  0  0  0
    0.6326   -2.4925    0.0000 O   0  0  0  0  0  0  0  0  0  0  0  0
    2.7373   -0.6036    0.0000 N   0  0  0  0  0  0  0  0  0  0  0  0
    1.9556    0.6766    0.0000 C   0  0  0  0  0  0  0  0  0  0  0  0
    1.1102   -0.5624    0.0000 C   0  0  0  0  0  0  0  0  0  0  0  0
   -0.0630   -1.4971    0.0000 C   0  0  0  0  0  0  0  0  0  0  0  0
   -1.4595   -2.0446    0.0000 C   0  0  0  0  0  0  0  0  0  0  0  0
   -2.9554   -2.1561    0.0000 C   0  0  0  0  0  0  0  0  0  0  0  0
    3.4441    0.8625    0.0000 C   0  0  0  0  0  0  0  0  0  0  0  0
    2.3984    2.1098    0.0000 C   0  0  0  0  0  0  0  0  0  0  0  0
    3.8815    1.8856    0.0000 O   0  0  0  0  0  0  0  0  0  0  0  0
    2.3990    3.6098    0.0000 N   0  0  0  0  0  0  0  0  0  0  0  0
    1.9574    5.0433    0.0000 C   0  0  0  0  0  0  0  0  0  0  0  0
    2.7401    6.3230    0.0000 C   0  0  0  0  0  0  0  0  0  0  0  0
    4.2396    6.2849    0.0000 C   0  0  0  0  0  0  0  0  0  0  0  0
    1.1130    6.2830    0.0000 C   0  0  0  0  0  0  0  0  0  0  0  0
    2.2130    7.3029    0.0000 O   0  0  0  0  0  0  0  0  0  0  0  0
   -0.0594    7.2188    0.0000 N   0  0  0  0  0  0  0  0  0  0  0  0
   -1.4555    7.7673    0.0000 C   0  0  0  0  0  0  0  0  0  0  0  0
   -1.9679    9.1771    0.0000 C   0  0  0  0  0  0  0  0  0  0  0  0
   -0.8705   10.1996    0.0000 C   0  0  0  0  0  0  0  0  0  0  0  0
   -2.9317   10.3266    0.0000 C   0  0  0  0  0  0  0  0  0  0  0  0
   -2.4180   11.7359    0.0000 C   0  0  0  0  0  0  0  0  0  0  0  0
   -2.9512    7.8800    0.0000 C   0  0  0  0  0  0  0  0  0  0  0  0
   -3.2442    9.3512    0.0000 O   0  0  0  0  0  0  0  0  0  0  0  0
   -4.4138    7.5469    0.0000 N   0  0  0  0  0  0  0  0  0  0  0  0
   -5.7131    6.7974    0.0000 C   0  0  0  0  0  0  0  0  0  0  0  0
   -7.1348    7.2757    0.0000 C   0  0  0  0  0  0  0  0  0  0  0  0
   -7.4314    8.7461    0.0000 C   0  0  0  0  0  0  0  0  0  0  0  0
   -8.8531    9.2244    0.0000 C   0  0  0  0  0  0  0  0  0  0  0  0
   -7.0281   10.1909    0.0000 C   0  0  0  0  0  0  0  0  0  0  0  0
   -6.7338    5.6982    0.0000 C   0  0  0  0  0  0  0  0  0  0  0  0
   -7.7314    6.8184    0.0000 O   0  0  0  0  0  0  0  0  0  0  0  0
   -7.3852    4.3471    0.0000 N   0  0  0  0  0  0  0  0  0  0  0  0
   -7.6094    2.8639    0.0000 C   0  0  0  0  0  0  0  0  0  0  0  0
   -7.3864    1.3806    0.0000 C   0  0  0  0  0  0  0  0  0  0  0  0
   -6.7362    0.0288    0.0000 C   0  0  0  0  0  0  0  0  0  0  0  0
   -5.7163   -1.0712    0.0000 C   0  0  0  0  0  0  0  0  0  0  0  0
   -4.4176   -1.8217    0.0000 C   0  0  0  0  0  0  0  0  0  0  0  0
   -7.8336    1.3807    0.0000 C   0  0  0  0  0  0  0  0  0  0  0  0
   -8.4849    0.0296    0.0000 C   0  0  0  0  0  0  0  0  0  0  0  0
   -9.5056   -1.0696    0.0000 C   0  0  0  0  0  0  0  0  0  0  0  0
  -10.8050   -1.8191    0.0000 C   0  0  0  0  0  0  0  0  0  0  0  0
   -7.8323    4.3472    0.0000 C   0  0  0  0  0  0  0  0  0  0  0  0
   -6.3988    4.7888    0.0000 O   0  0  0  0  0  0  0  0  0  0  0  0
   -8.4826    5.6990    0.0000 N   0  0  0  0  0  0  0  0  0  0  0  0
   -9.5024    6.7990    0.0000 C   0  0  0  0  0  0  0  0  0  0  0  0
   -9.3525    8.2914    0.0000 C   0  0  0  0  0  0  0  0  0  0  0  0
   -7.9849    8.9078    0.0000 C   0  0  0  0  0  0  0  0  0  0  0  0
   -8.0180   10.4074    0.0000 C   0  0  0  0  0  0  0  0  0  0  0  0
   -6.5138    9.2008    0.0000 C   0  0  0  0  0  0  0  0  0  0  0  0
  -10.8011    7.5495    0.0000 C   0  0  0  0  0  0  0  0  0  0  0  0
  -10.4268    9.0020    0.0000 O   0  0  0  0  0  0  0  0  0  0  0  0
  -12.2634    7.8839    0.0000 N   0  0  0  0  0  0  0  0  0  0  0  0
  -13.7593    7.7724    0.0000 C   0  0  0  0  0  0  0  0  0  0  0  0
  -14.8326    8.8202    0.0000 C   0  0  0  0  0  0  0  0  0  0  0  0
  -14.4619   10.2736    0.0000 C   0  0  0  0  0  0  0  0  0  0  0  0
  -15.5353   11.3214    0.0000 C   0  0  0  0  0  0  0  0  0  0  0  0
  -15.1645   12.7749    0.0000 O   0  0  0  0  0  0  0  0  0  0  0  0
  -16.9794   10.9158    0.0000 O   0  0  0  0  0  0  0  0  0  0  0  0
  -15.1558    7.2249    0.0000 C   0  0  0  0  0  0  0  0  0  0  0  0
  -15.9053    8.5243    0.0000 O   0  0  0  0  0  0  0  0  0  0  0  0
  -16.3289    6.2902    0.0000 N   0  0  0  0  0  0  0  0  0  0  0  0
  -17.1744    5.0512    0.0000 C   0  0  0  0  0  0  0  0  0  0  0  0
  -18.6628    4.8653    0.0000 C   0  0  0  0  0  0  0  0  0  0  0  0
  -19.5681    6.0613    0.0000 C   0  0  0  0  0  0  0  0  0  0  0  0
  -21.0565    5.8754    0.0000 C   0  0  0  0  0  0  0  0  0  0  0  0
  -21.9617    7.0715    0.0000 N   0  0  0  0  0  0  0  0  0  0  0  0
  -21.6397    4.4935    0.0000 O   0  0  0  0  0  0  0  0  0  0  0  0
  -17.6171    3.6180    0.0000 C   0  0  0  0  0  0  0  0  0  0  0  0
  -19.1003    3.8422    0.0000 O   0  0  0  0  0  0  0  0  0  0  0  0
  -17.6177    2.1180    0.0000 N   0  0  0  0  0  0  0  0  0  0  0  0
  -17.1762    0.6845    0.0000 C   0  0  0  0  0  0  0  0  0  0  0  0
  -16.3317   -0.5552    0.0000 C   0  0  0  0  0  0  0  0  0  0  0  0
  -15.1594   -1.4910    0.0000 C   0  0  0  0  0  0  0  0  0  0  0  0
  -13.7633   -2.0395    0.0000 C   0  0  0  0  0  0  0  0  0  0  0  0
  -12.2675   -2.1523    0.0000 C   0  0  0  0  0  0  0  0  0  0  0  0
  -18.6645    0.8716    0.0000 C   0  0  0  0  0  0  0  0  0  0  0  0
  -17.9589   -0.5952    0.0000 C   0  0  0  0  0  0  0  0  0  0  0  0
  -17.5822   -2.0471    0.0000 O   0  0  0  0  0  0  0  0  0  0  0  0
  -19.4584   -0.5571    0.0000 N   0  0  0  0  0  0  0  0  0  0  0  0
  -20.2411   -1.8368    0.0000 C   0  0  0  0  0  0  0  0  0  0  0  0
  -20.5389   -3.3069    0.0000 C   0  0  0  0  0  0  0  0  0  0  0  0
  -21.8922   -3.9538    0.0000 C   0  0  0  0  0  0  0  0  0  0  0  0
  -21.7406   -1.7987    0.0000 C   0  0  0  0  0  0  0  0  0  0  0  0
  -22.4574   -0.4811    0.0000 O   0  0  0  0  0  0  0  0  0  0  0  0
  -22.5233   -3.0784    0.0000 N   0  0  0  0  0  0  0  0  0  0  0  0
  -24.0228   -3.0404    0.0000 C   0  0  0  0  0  0  0  0  0  0  0  0
  -25.4189   -2.4918    0.0000 C   0  0  0  0  0  0  0  0  0  0  0  0
  -25.6418   -1.0084    0.0000 C   0  0  0  0  0  0  0  0  0  0  0  0
  -27.0379   -0.4598    0.0000 C   0  0  0  0  0  0  0  0  0  0  0  0
  -27.2609    1.0235    0.0000 N   0  0  0  0  0  0  0  0  0  0  0  0
  -28.6570    1.5721    0.0000 C   0  0  0  0  0  0  0  0  0  0  0  0
  -28.8799    3.0554    0.0000 N   0  0  0  0  0  0  0  0  0  0  0  0
  -29.8301    0.6373    0.0000 N   0  0  0  0  0  0  0  0  0  0  0  0
  -24.8055   -4.3200    0.0000 C   0  0  0  0  0  0  0  0  0  0  0  0
  -24.0886   -5.6376    0.0000 O   0  0  0  0  0  0  0  0  0  0  0  0
  -26.3050   -4.2820    0.0000 N   0  0  0  0  0  0  0  0  0  0  0  0
  -27.0877   -5.5616    0.0000 C   0  0  0  0  0  0  0  0  0  0  0  0
  -27.3855   -7.0317    0.0000 C   0  0  0  0  0  0  0  0  0  0  0  0
  -28.8076   -7.5089    0.0000 C   0  0  0  0  0  0  0  0  0  0  0  0
  -29.1054   -8.9790    0.0000 C   0  0  0  0  0  0  0  0  0  0  0  0
  -30.4587   -9.6259    0.0000 O   0  0  0  0  0  0  0  0  0  0  0  0
  -27.9811   -9.9720    0.0000 O   0  0  0  0  0  0  0  0  0  0  0  0
  -28.5872   -5.5236    0.0000 C   0  0  0  0  0  0  0  0  0  0  0  0
  -29.3040   -4.2059    0.0000 O   0  0  0  0  0  0  0  0  0  0  0  0
  -29.3699   -6.8032    0.0000 N   0  0  0  0  0  0  0  0  0  0  0  0
  -30.8694   -6.7652    0.0000 C   0  0  0  0  0  0  0  0  0  0  0  0
  -32.2655   -6.2166    0.0000 C   0  0  0  0  0  0  0  0  0  0  0  0
  -32.4884   -4.7332    0.0000 C   0  0  0  0  0  0  0  0  0  0  0  0
  -33.8845   -4.1847    0.0000 C   0  0  0  0  0  0  0  0  0  0  0  0
  -34.1075   -2.7013    0.0000 N   0  0  0  0  0  0  0  0  0  0  0  0
  -35.5035   -2.1527    0.0000 C   0  0  0  0  0  0  0  0  0  0  0  0
  -35.7265   -0.6694    0.0000 N   0  0  0  0  0  0  0  0  0  0  0  0
  -36.6767   -3.0875    0.0000 N   0  0  0  0  0  0  0  0  0  0  0  0
  -31.6521   -8.0448    0.0000 C   0  0  0  0  0  0  0  0  0  0  0  0
  -33.1450   -8.1898    0.0000 O   0  0  0  0  0  0  0  0  0  0  0  0
  -31.1012   -9.4400    0.0000 O   0  0  0  0  0  0  0  0  0  0  0  0
   24.9792    6.8195    0.0000 H   0  0  0  0  0  0  0  0  0  0  0  0
   29.2920    5.5615    0.0000 H   0  0  0  0  0  0  0  0  0  0  0  0
   31.5421    7.5456    0.0000 H   0  0  0  0  0  0  0  0  0  0  0  0
   25.7819    9.1006    0.0000 H   0  0  0  0  0  0  0  0  0  0  0  0
   26.3536   16.2411    0.0000 H   0  0  0  0  0  0  0  0  0  0  0  0
   31.5154   15.6444    0.0000 H   0  0  0  0  0  0  0  0  0  0  0  0
   31.1709   12.6642    0.0000 H   0  0  0  0  0  0  0  0  0  0  0  0
   30.4834   18.0287    0.0000 H   0  0  0  0  0  0  0  0  0  0  0  0
   28.0732    8.4924    0.0000 H   0  0  0  0  0  0  0  0  0  0  0  0
   25.1397    7.3328    0.0000 H   0  0  0  0  0  0  0  0  0  0  0  0
   23.2559   12.0693    0.0000 H   0  0  0  0  0  0  0  0  0  0  0  0
   21.7071    9.9834    0.0000 H   0  0  0  0  0  0  0  0  0  0  0  0
   24.1984    4.5340    0.0000 H   0  0  0  0  0  0  0  0  0  0  0  0
   27.3133    3.1327    0.0000 H   0  0  0  0  0  0  0  0  0  0  0  0
   26.9849    1.5322    0.0000 H   0  0  0  0  0  0  0  0  0  0  0  0
   23.8598    2.7686    0.0000 H   0  0  0  0  0  0  0  0  0  0  0  0
   23.3388    1.2201    0.0000 H   0  0  0  0  0  0  0  0  0  0  0  0
   22.5415   -0.3909    0.0000 H   0  0  0  0  0  0  0  0  0  0  0  0
   22.7670   -2.1933    0.0000 H   0  0  0  0  0  0  0  0  0  0  0  0
   27.1492   -1.9385    0.0000 H   0  0  0  0  0  0  0  0  0  0  0  0
   26.3000   -3.1471    0.0000 H   0  0  0  0  0  0  0  0  0  0  0  0
   24.4166    0.0181    0.0000 H   0  0  0  0  0  0  0  0  0  0  0  0
   27.8535    1.6232    0.0000 H   0  0  0  0  0  0  0  0  0  0  0  0
   28.7766    0.2752    0.0000 H   0  0  0  0  0  0  0  0  0  0  0  0
   27.7507   -1.1849    0.0000 H   0  0  0  0  0  0  0  0  0  0  0  0
   26.7090    2.1534    0.0000 H   0  0  0  0  0  0  0  0  0  0  0  0
   24.9642    2.5273    0.0000 H   0  0  0  0  0  0  0  0  0  0  0  0
   24.2645    0.4478    0.0000 H   0  0  0  0  0  0  0  0  0  0  0  0
   21.4668   -3.4345    0.0000 H   0  0  0  0  0  0  0  0  0  0  0  0
   20.9932   -5.3751    0.0000 H   0  0  0  0  0  0  0  0  0  0  0  0
   25.2673   -6.4646    0.0000 H   0  0  0  0  0  0  0  0  0  0  0  0
   23.6903   -7.2997    0.0000 H   0  0  0  0  0  0  0  0  0  0  0  0
   23.3687   -3.6914    0.0000 H   0  0  0  0  0  0  0  0  0  0  0  0
   27.1472   -3.3586    0.0000 H   0  0  0  0  0  0  0  0  0  0  0  0
   27.5537   -4.9411    0.0000 H   0  0  0  0  0  0  0  0  0  0  0  0
   26.0903   -5.9622    0.0000 H   0  0  0  0  0  0  0  0  0  0  0  0
   26.2531   -2.4690    0.0000 H   0  0  0  0  0  0  0  0  0  0  0  0
   24.9246   -1.5179    0.0000 H   0  0  0  0  0  0  0  0  0  0  0  0
   23.3727   -3.2357    0.0000 H   0  0  0  0  0  0  0  0  0  0  0  0
   19.4158   -5.9269    0.0000 H   0  0  0  0  0  0  0  0  0  0  0  0
   18.4300   -7.4526    0.0000 H   0  0  0  0  0  0  0  0  0  0  0  0
   20.5234  -10.4542    0.0000 H   0  0  0  0  0  0  0  0  0  0  0  0
   23.4957   -8.3119    0.0000 H   0  0  0  0  0  0  0  0  0  0  0  0
   22.7442   -6.6934    0.0000 H   0  0  0  0  0  0  0  0  0  0  0  0
   21.1535   -6.7960    0.0000 H   0  0  0  0  0  0  0  0  0  0  0  0
   22.8552  -11.2185    0.0000 H   0  0  0  0  0  0  0  0  0  0  0  0
   21.0779  -11.0601    0.0000 H   0  0  0  0  0  0  0  0  0  0  0  0
   24.6425  -10.3265    0.0000 H   0  0  0  0  0  0  0  0  0  0  0  0
   24.5952   -8.3988    0.0000 H   0  0  0  0  0  0  0  0  0  0  0  0
   23.1994   -7.9155    0.0000 H   0  0  0  0  0  0  0  0  0  0  0  0
   16.6362   -7.5676    0.0000 H   0  0  0  0  0  0  0  0  0  0  0  0
   15.0261   -8.7498    0.0000 H   0  0  0  0  0  0  0  0  0  0  0  0
   17.5998  -12.3318    0.0000 H   0  0  0  0  0  0  0  0  0  0  0  0
   15.9843  -12.0876    0.0000 H   0  0  0  0  0  0  0  0  0  0  0  0
   17.9280   -8.9870    0.0000 H   0  0  0  0  0  0  0  0  0  0  0  0
   21.0489  -11.3436    0.0000 H   0  0  0  0  0  0  0  0  0  0  0  0
   20.3306  -12.6343    0.0000 H   0  0  0  0  0  0  0  0  0  0  0  0
   18.5532  -12.4759    0.0000 H   0  0  0  0  0  0  0  0  0  0  0  0
   20.9234   -9.9046    0.0000 H   0  0  0  0  0  0  0  0  0  0  0  0
   20.5170   -8.3221    0.0000 H   0  0  0  0  0  0  0  0  0  0  0  0
   18.2240   -8.6404    0.0000 H   0  0  0  0  0  0  0  0  0  0  0  0
   13.4630   -8.1586    0.0000 H   0  0  0  0  0  0  0  0  0  0  0  0
   11.5456   -8.7188    0.0000 H   0  0  0  0  0  0  0  0  0  0  0  0
   12.9205  -12.9399    0.0000 H   0  0  0  0  0  0  0  0  0  0  0  0
   11.3045  -12.1831    0.0000 H   0  0  0  0  0  0  0  0  0  0  0  0
   15.5200  -10.8853    0.0000 H   0  0  0  0  0  0  0  0  0  0  0  0
   14.1914   -9.9342    0.0000 H   0  0  0  0  0  0  0  0  0  0  0  0
   17.1862  -13.9564    0.0000 H   0  0  0  0  0  0  0  0  0  0  0  0
   17.4640  -11.5790    0.0000 H   0  0  0  0  0  0  0  0  0  0  0  0
   10.2790   -7.6287    0.0000 H   0  0  0  0  0  0  0  0  0  0  0  0
    8.2857   -7.4994    0.0000 H   0  0  0  0  0  0  0  0  0  0  0  0
    8.1340  -11.9361    0.0000 H   0  0  0  0  0  0  0  0  0  0  0  0
    6.8586  -10.4897    0.0000 H   0  0  0  0  0  0  0  0  0  0  0  0
   11.2794  -10.8944    0.0000 H   0  0  0  0  0  0  0  0  0  0  0  0
   10.3562   -9.5464    0.0000 H   0  0  0  0  0  0  0  0  0  0  0  0
   11.7948  -14.3503    0.0000 H   0  0  0  0  0  0  0  0  0  0  0  0
   12.8689  -12.2113    0.0000 H   0  0  0  0  0  0  0  0  0  0  0  0
    7.4683   -6.0418    0.0000 H   0  0  0  0  0  0  0  0  0  0  0  0
    5.6395   -5.2385    0.0000 H   0  0  0  0  0  0  0  0  0  0  0  0
    5.7469   -9.1103    0.0000 H   0  0  0  0  0  0  0  0  0  0  0  0
    3.9794   -9.3557    0.0000 H   0  0  0  0  0  0  0  0  0  0  0  0
    3.2757   -7.5604    0.0000 H   0  0  0  0  0  0  0  0  0  0  0  0
    5.3699   -3.5892    0.0000 H   0  0  0  0  0  0  0  0  0  0  0  0
    3.9261   -2.2089    0.0000 H   0  0  0  0  0  0  0  0  0  0  0  0
    0.9580   -5.5100    0.0000 H   0  0  0  0  0  0  0  0  0  0  0  0
    0.9107   -3.5823    0.0000 H   0  0  0  0  0  0  0  0  0  0  0  0
    2.1468   -7.1153    0.0000 H   0  0  0  0  0  0  0  0  0  0  0  0
    4.0370   -6.7339    0.0000 H   0  0  0  0  0  0  0  0  0  0  0  0
    4.2123   -5.1496    0.0000 H   0  0  0  0  0  0  0  0  0  0  0  0
    4.2301   -0.7499    0.0000 H   0  0  0  0  0  0  0  0  0  0  0  0
    2.4802   -1.1731    0.0000 H   0  0  0  0  0  0  0  0  0  0  0  0
    1.2997   -2.0504    0.0000 H   0  0  0  0  0  0  0  0  0  0  0  0
    0.7937   -2.7285    0.0000 H   0  0  0  0  0  0  0  0  0  0  0  0
    0.0448   -2.9933    0.0000 H   0  0  0  0  0  0  0  0  0  0  0  0
   -0.5219   -3.2154    0.0000 H   0  0  0  0  0  0  0  0  0  0  0  0
   -1.9731   -3.4539    0.0000 H   0  0  0  0  0  0  0  0  0  0  0  0
   -3.0681   -3.6518    0.0000 H   0  0  0  0  0  0  0  0  0  0  0  0
    4.4883   -0.2143    0.0000 H   0  0  0  0  0  0  0  0  0  0  0  0
    4.7792    1.5463    0.0000 H   0  0  0  0  0  0  0  0  0  0  0  0
    3.3625    2.3603    0.0000 H   0  0  0  0  0  0  0  0  0  0  0  0
    3.8823    3.8328    0.0000 H   0  0  0  0  0  0  0  0  0  0  0  0
    3.4118    4.6762    0.0000 H   0  0  0  0  0  0  0  0  0  0  0  0
    3.0379    7.7931    0.0000 H   0  0  0  0  0  0  0  0  0  0  0  0
    1.5183    7.1931    0.0000 H   0  0  0  0  0  0  0  0  0  0  0  0
    5.0223    7.5646    0.0000 H   0  0  0  0  0  0  0  0  0  0  0  0
    5.6357    5.7364    0.0000 H   0  0  0  0  0  0  0  0  0  0  0  0
    4.1232    4.7895    0.0000 H   0  0  0  0  0  0  0  0  0  0  0  0
    0.6911    8.5175    0.0000 H   0  0  0  0  0  0  0  0  0  0  0  0
   -0.2617    8.6755    0.0000 H   0  0  0  0  0  0  0  0  0  0  0  0
   -3.4100    8.7643    0.0000 H   0  0  0  0  0  0  0  0  0  0  0  0
   -1.3237   11.8027    0.0000 H   0  0  0  0  0  0  0  0  0  0  0  0
    0.2961   11.0752    0.0000 H   0  0  0  0  0  0  0  0  0  0  0  0
    0.0933    9.3023    0.0000 H   0  0  0  0  0  0  0  0  0  0  0  0
   -4.2304   11.0771    0.0000 H   0  0  0  0  0  0  0  0  0  0  0  0
   -4.0291    9.3040    0.0000 H   0  0  0  0  0  0  0  0  0  0  0  0
   -3.3818   12.8853    0.0000 H   0  0  0  0  0  0  0  0  0  0  0  0
   -1.4534   12.8846    0.0000 H   0  0  0  0  0  0  0  0  0  0  0  0
   -0.9763   11.3219    0.0000 H   0  0  0  0  0  0  0  0  0  0  0  0
   -4.7869    8.9997    0.0000 H   0  0  0  0  0  0  0  0  0  0  0  0
   -5.4963    8.2816    0.0000 H   0  0  0  0  0  0  0  0  0  0  0  0
   -8.6344    7.2389    0.0000 H   0  0  0  0  0  0  0  0  0  0  0  0
   -7.8757    5.9715    0.0000 H   0  0  0  0  0  0  0  0  0  0  0  0
   -5.9386    8.5998    0.0000 H   0  0  0  0  0  0  0  0  0  0  0  0
   -9.4967   10.5793    0.0000 H   0  0  0  0  0  0  0  0  0  0  0  0
  -10.3170    9.5516    0.0000 H   0  0  0  0  0  0  0  0  0  0  0  0
   -8.8948    7.7250    0.0000 H   0  0  0  0  0  0  0  0  0  0  0  0
   -5.8107   10.7767    0.0000 H   0  0  0  0  0  0  0  0  0  0  0  0
   -7.3164   11.7464    0.0000 H   0  0  0  0  0  0  0  0  0  0  0  0
   -8.7068   10.1925    0.0000 H   0  0  0  0  0  0  0  0  0  0  0  0
   -8.8184    4.7898    0.0000 H   0  0  0  0  0  0  0  0  0  0  0  0
   -8.2039    0.1229    0.0000 H   0  0  0  0  0  0  0  0  0  0  0  0
   -8.8302    1.7874    0.0000 H   0  0  0  0  0  0  0  0  0  0  0  0
   -7.1466   -1.4139    0.0000 H   0  0  0  0  0  0  0  0  0  0  0  0
   -8.1229   -0.5430    0.0000 H   0  0  0  0  0  0  0  0  0  0  0  0
   -5.8663   -2.5636    0.0000 H   0  0  0  0  0  0  0  0  0  0  0  0
   -6.9807   -1.8782    0.0000 H   0  0  0  0  0  0  0  0  0  0  0  0
   -4.9662   -3.2178    0.0000 H   0  0  0  0  0  0  0  0  0  0  0  0
   -6.3895    1.7864    0.0000 H   0  0  0  0  0  0  0  0  0  0  0  0
   -7.0171    0.1224    0.0000 H   0  0  0  0  0  0  0  0  0  0  0  0
   -7.0987   -0.5434    0.0000 H   0  0  0  0  0  0  0  0  0  0  0  0
   -8.0757   -1.4135    0.0000 H   0  0  0  0  0  0  0  0  0  0  0  0
   -8.2419   -1.8777    0.0000 H   0  0  0  0  0  0  0  0  0  0  0  0
   -9.3569   -2.5622    0.0000 H   0  0  0  0  0  0  0  0  0  0  0  0
  -10.2576   -3.2156    0.0000 H   0  0  0  0  0  0  0  0  0  0  0  0
   -7.7846    7.0267    0.0000 H   0  0  0  0  0  0  0  0  0  0  0  0
   -8.1491    7.4459    0.0000 H   0  0  0  0  0  0  0  0  0  0  0  0
  -10.0628    9.6126    0.0000 H   0  0  0  0  0  0  0  0  0  0  0  0
  -10.8308    8.5452    0.0000 H   0  0  0  0  0  0  0  0  0  0  0  0
   -7.7954    7.4198    0.0000 H   0  0  0  0  0  0  0  0  0  0  0  0
   -6.6610   11.3738    0.0000 H   0  0  0  0  0  0  0  0  0  0  0  0
   -8.3795   11.8205    0.0000 H   0  0  0  0  0  0  0  0  0  0  0  0
   -9.2861   10.7673    0.0000 H   0  0  0  0  0  0  0  0  0  0  0  0
   -5.5748   10.1721    0.0000 H   0  0  0  0  0  0  0  0  0  0  0  0
   -4.9320    9.1779    0.0000 H   0  0  0  0  0  0  0  0  0  0  0  0
   -7.0404    7.6069    0.0000 H   0  0  0  0  0  0  0  0  0  0  0  0
  -12.1507    9.3796    0.0000 H   0  0  0  0  0  0  0  0  0  0  0  0
  -13.0777    9.1086    0.0000 H   0  0  0  0  0  0  0  0  0  0  0  0
  -16.1996    9.4377    0.0000 H   0  0  0  0  0  0  0  0  0  0  0  0
  -15.9528    7.8226    0.0000 H   0  0  0  0  0  0  0  0  0  0  0  0
  -13.6164   11.5127    0.0000 H   0  0  0  0  0  0  0  0  0  0  0  0
  -13.0298    9.8274    0.0000 H   0  0  0  0  0  0  0  0  0  0  0  0
  -18.0527   11.9636    0.0000 H   0  0  0  0  0  0  0  0  0  0  0  0
  -17.4281    7.3109    0.0000 H   0  0  0  0  0  0  0  0  0  0  0  0
  -17.7942    6.4172    0.0000 H   0  0  0  0  0  0  0  0  0  0  0  0
  -19.9979    4.1815    0.0000 H   0  0  0  0  0  0  0  0  0  0  0  0
  -18.5813    3.3675    0.0000 H   0  0  0  0  0  0  0  0  0  0  0  0
  -20.0096    7.4949    0.0000 H   0  0  0  0  0  0  0  0  0  0  0  0
  -18.3263    6.9028    0.0000 H   0  0  0  0  0  0  0  0  0  0  0  0
  -23.4501    6.8856    0.0000 H   0  0  0  0  0  0  0  0  0  0  0  0
  -21.3785    8.4535    0.0000 H   0  0  0  0  0  0  0  0  0  0  0  0
  -19.1011    1.8950    0.0000 H   0  0  0  0  0  0  0  0  0  0  0  0
  -16.7025   -2.0087    0.0000 H   0  0  0  0  0  0  0  0  0  0  0  0
  -17.7023   -1.1649    0.0000 H   0  0  0  0  0  0  0  0  0  0  0  0
  -15.2684   -2.9870    0.0000 H   0  0  0  0  0  0  0  0  0  0  0  0
  -16.2893   -2.4775    0.0000 H   0  0  0  0  0  0  0  0  0  0  0  0
  -13.2508   -3.4493    0.0000 H   0  0  0  0  0  0  0  0  0  0  0  0
  -14.7019   -3.2096    0.0000 H   0  0  0  0  0  0  0  0  0  0  0  0
  -12.1560   -3.6481    0.0000 H   0  0  0  0  0  0  0  0  0  0  0  0
  -19.8330   -0.0689    0.0000 H   0  0  0  0  0  0  0  0  0  0  0  0
  -19.9056    1.7140    0.0000 H   0  0  0  0  0  0  0  0  0  0  0  0
  -18.5817    2.3693    0.0000 H   0  0  0  0  0  0  0  0  0  0  0  0
  -20.3305    0.6633    0.0000 H   0  0  0  0  0  0  0  0  0  0  0  0
  -18.8450   -2.3853    0.0000 H   0  0  0  0  0  0  0  0  0  0  0  0
  -20.3159   -4.7902    0.0000 H   0  0  0  0  0  0  0  0  0  0  0  0
  -19.0394   -3.3449    0.0000 H   0  0  0  0  0  0  0  0  0  0  0  0
  -22.2588   -5.2542    0.0000 H   0  0  0  0  0  0  0  0  0  0  0  0
  -23.4605   -3.7460    0.0000 H   0  0  0  0  0  0  0  0  0  0  0  0
  -22.8544   -2.5791    0.0000 H   0  0  0  0  0  0  0  0  0  0  0  0
  -21.9724   -4.4735    0.0000 H   0  0  0  0  0  0  0  0  0  0  0  0
  -23.5480   -1.6175    0.0000 H   0  0  0  0  0  0  0  0  0  0  0  0
  -26.9184   -2.4538    0.0000 H   0  0  0  0  0  0  0  0  0  0  0  0
  -26.0636   -3.8462    0.0000 H   0  0  0  0  0  0  0  0  0  0  0  0
  -25.3440    0.4617    0.0000 H   0  0  0  0  0  0  0  0  0  0  0  0
  -24.1489   -0.8634    0.0000 H   0  0  0  0  0  0  0  0  0  0  0  0
  -28.5374   -0.4218    0.0000 H   0  0  0  0  0  0  0  0  0  0  0  0
  -27.5127   -1.8827    0.0000 H   0  0  0  0  0  0  0  0  0  0  0  0
  -26.0877    1.9582    0.0000 H   0  0  0  0  0  0  0  0  0  0  0  0
  -30.2760    3.6040    0.0000 H   0  0  0  0  0  0  0  0  0  0  0  0
  -31.2262    1.1859    0.0000 H   0  0  0  0  0  0  0  0  0  0  0  0
  -29.6071   -0.8460    0.0000 H   0  0  0  0  0  0  0  0  0  0  0  0
  -27.1771   -3.0615    0.0000 H   0  0  0  0  0  0  0  0  0  0  0  0
  -25.6916   -6.1102    0.0000 H   0  0  0  0  0  0  0  0  0  0  0  0
  -27.1625   -8.5150    0.0000 H   0  0  0  0  0  0  0  0  0  0  0  0
  -25.8860   -7.0697    0.0000 H   0  0  0  0  0  0  0  0  0  0  0  0
  -30.3071   -7.4708    0.0000 H   0  0  0  0  0  0  0  0  0  0  0  0
  -29.7009   -6.3039    0.0000 H   0  0  0  0  0  0  0  0  0  0  0  0
  -28.2789  -11.4421    0.0000 H   0  0  0  0  0  0  0  0  0  0  0  0
  -28.9931   -8.2551    0.0000 H   0  0  0  0  0  0  0  0  0  0  0  0
  -30.3946   -5.3423    0.0000 H   0  0  0  0  0  0  0  0  0  0  0  0
  -33.7584   -6.3616    0.0000 H   0  0  0  0  0  0  0  0  0  0  0  0
  -32.7403   -7.6395    0.0000 H   0  0  0  0  0  0  0  0  0  0  0  0
  -32.1906   -3.2631    0.0000 H   0  0  0  0  0  0  0  0  0  0  0  0
  -30.9954   -4.5882    0.0000 H   0  0  0  0  0  0  0  0  0  0  0  0
  -35.3840   -4.1467    0.0000 H   0  0  0  0  0  0  0  0  0  0  0  0
  -34.3593   -5.6075    0.0000 H   0  0  0  0  0  0  0  0  0  0  0  0
  -32.9343   -1.7666    0.0000 H   0  0  0  0  0  0  0  0  0  0  0  0
  -37.1226   -0.1208    0.0000 H   0  0  0  0  0  0  0  0  0  0  0  0
  -38.0728   -2.5389    0.0000 H   0  0  0  0  0  0  0  0  0  0  0  0
  -36.4537   -4.5708    0.0000 H   0  0  0  0  0  0  0  0  0  0  0  0
  -31.7179  -10.6420    0.0000 H   0  0  0  0  0  0  0  0  0  0  0  0
  1  2  1  0
  2  3  1  0
  3  4  2  0
  4  5  1  0
  5  6  2  0
  6  7  1  0
  7  8  2  0
  7  9  1  0
  9 10  1  0
 10 11  1  0
 11 12  2  0
  9 13  1  0
 13 14  1  0
 14 15  2  0
 15 16  1  0
 16 17  2  0
 17 18  1  0
 16 19  1  0
 14 20  1  0
 20 21  1  0
 21 22  2  0
 22 23  1  0
 23 24  2  0
 24 25  1  0
 25 26  2  0
 25 27  1  0
  1 28  2  0
  1 29  1  0
 29 30  1  0
 30 31  1  0
 31 32  1  0
 32 33  2  0
 32 34  1  0
 34 35  1  0
 35 36  1  0
 36 37  1  0
 37 38  1  0
 37 39  1  0
 35 40  1  0
 40 41  2  0
 40 42  1  0
 42 43  1  0
 43 44  1  0
 44 45  1  0
 45 46  1  0
 45 47  1  0
 43 48  1  0
 48 49  2  0
 48 50  1  0
 50 51  1  0
 51 52  1  0
 52 53  1  0
 52 54  1  0
 54 55  1  0
 51 56  1  0
 56 57  2  0
 56 58  1  0
 58 59  1  0
 59 60  1  0
 60 61  1  0
 61 62  1  0
 61 63  1  0
 59 64  1  0
 64 65  2  0
 64 66  1  0
 66 67  1  0
 67 68  1  0
 68 69  1  0
 69 70  1  0
 70 71  1  0
 70 72  2  0
 67 73  1  0
 73 74  2  0
 73 75  1  0
 75 76  1  0
 76 77  1  0
 77 78  1  0
 78 79  1  0
 79 80  1  0
 79 81  2  0
 76 82  1  0
 82 83  2  0
 82 84  1  0
 84 85  1  0
 85 86  1  0
 85 87  1  0
 87 88  2  0
 87 89  1  0
 89 90  1  0
 90 91  1  0
 91 92  1  0
 90 93  1  0
 93 94  2  0
 93 95  1  0
 96 95  1  1
 96 97  1  0
 97 98  1  0
 98 99  1  0
 99100  1  0
 96101  1  0
 96102  1  0
102103  2  0
102104  1  0
104105  1  0
105106  1  0
106107  1  0
105108  1  0
108109  2  0
108110  1  0
110111  1  0
111112  1  0
112113  1  0
112114  1  0
114115  1  0
111116  1  0
116117  2  0
116118  1  0
118119  1  0
119120  1  0
120121  1  0
121122  1  0
121123  1  0
119124  1  0
124125  2  0
124126  1  0
126127  1  0
127128  1  0
128129  1  0
129130  1  0
130131  1  0
127132  1  0
132133  1  0
133134  1  0
134135  1  0
127136  1  0
136137  2  0
136138  1  0
138139  1  0
139140  1  0
140141  1  0
141142  1  0
141143  1  0
139144  1  0
144145  2  0
144146  1  0
146147  1  0
147148  1  0
148149  1  0
149150  1  0
150151  2  0
150152  1  0
147153  1  0
153154  2  0
153155  1  0
155156  1  0
156157  1  0
157158  1  0
158159  1  0
159160  1  0
159161  2  0
156162  1  0
162163  2  0
162164  1  0
164165  1  0
165166  1  0
166167  1  0
167168  1  0
168169  1  0
165170  1  0
165171  1  6
171172  2  0
171173  1  0
173174  1  0
174175  1  0
175176  1  0
174177  1  0
177178  2  0
177179  1  0
179180  1  0
180181  1  0
181182  1  0
182183  1  0
183184  1  0
184185  1  0
185186  2  3
185187  1  0
180188  1  0
188189  2  0
188190  1  0
190191  1  0
191192  1  0
192193  1  0
193194  1  0
194195  2  0
194196  1  0
191197  1  0
197198  2  0
197199  1  0
199200  1  0
200201  1  0
201202  1  0
202203  1  0
203204  1  0
204205  1  0
205206  2  3
205207  1  0
200208  1  0
208209  2  0
208210  1  0
  8  3  1  0
 11  6  1  0
100131  2  0
 18 13  2  0
135169  2  0
 22  9  1  0
 26 21  1  0
  2211  1  0
  4212  1  0
  5213  1  0
  8214  1  0
 15215  1  0
 17216  1  0
 18217  1  0
 19218  1  0
 23219  1  0
 24220  1  0
 26221  1  0
 27222  1  0
 29223  1  0
 30224  1  0
 30225  1  0
 31226  1  0
 31227  1  0
 34228  1  0
 35229  1  1
 36230  1  0
 36231  1  0
 37232  1  0
 38233  1  0
 38234  1  0
 38235  1  0
 39236  1  0
 39237  1  0
 39238  1  0
 42239  1  0
 43240  1  1
 44241  1  0
 44242  1  0
 45243  1  0
 46244  1  0
 46245  1  0
 46246  1  0
 47247  1  0
 47248  1  0
 47249  1  0
 50250  1  0
 51251  1  1
 52252  1  6
 53253  1  0
 53254  1  0
 53255  1  0
 54256  1  0
 54257  1  0
 55258  1  0
 55259  1  0
 55260  1  0
 58261  1  0
 59262  1  1
 60263  1  0
 60264  1  0
 61265  1  0
 62266  1  0
 62267  1  0
 62268  1  0
 63269  1  0
 63270  1  0
 63271  1  0
 66272  1  0
 67273  1  1
 68274  1  0
 68275  1  0
 69276  1  0
 69277  1  0
 71278  1  0
 71279  1  0
 75280  1  0
 76281  1  1
 77282  1  0
 77283  1  0
 78284  1  0
 78285  1  0
 80286  1  0
 80287  1  0
 84288  1  0
 85289  1  1
 86290  1  0
 86291  1  0
 86292  1  0
 89293  1  0
 90294  1  1
 91295  1  0
 91296  1  0
 92297  1  0
 92298  1  0
 92299  1  0
 95300  1  0
 97301  1  0
 97302  1  0
 98303  1  0
 98304  1  0
 99305  1  0
 99306  1  0
100307  1  0
101308  1  0
101309  1  0
101310  1  0
104311  1  0
105312  1  6
106313  1  0
106314  1  0
107315  1  0
107316  1  0
107317  1  0
110318  1  0
111319  1  6
112320  1  1
113321  1  0
113322  1  0
113323  1  0
114324  1  0
114325  1  0
115326  1  0
115327  1  0
115328  1  0
118329  1  0
119330  1  6
120331  1  0
120332  1  0
121333  1  0
122334  1  0
122335  1  0
122336  1  0
123337  1  0
123338  1  0
123339  1  0
126340  1  0
128341  1  0
128342  1  0
129343  1  0
129344  1  0
130345  1  0
130346  1  0
131347  1  0
132348  1  0
132349  1  0
133350  1  0
133351  1  0
134352  1  0
134353  1  0
135354  1  0
138355  1  0
139356  1  6
140357  1  0
140358  1  0
141359  1  0
142360  1  0
142361  1  0
142362  1  0
143363  1  0
143364  1  0
143365  1  0
146366  1  0
147367  1  6
148368  1  0
148369  1  0
149370  1  0
149371  1  0
152372  1  0
155373  1  0
156374  1  6
157375  1  0
157376  1  0
158377  1  0
158378  1  0
160379  1  0
160380  1  0
164381  1  0
166382  1  0
166383  1  0
167384  1  0
167385  1  0
168386  1  0
168387  1  0
169388  1  0
170389  1  0
170390  1  0
170391  1  0
173392  1  0
174393  1  1
175394  1  0
175395  1  0
176396  1  0
176397  1  0
176398  1  0
179399  1  0
180400  1  6
181401  1  0
181402  1  0
182403  1  0
182404  1  0
183405  1  0
183406  1  0
184407  1  0
186408  1  0
187409  1  0
187410  1  0
190411  1  0
191412  1  1
192413  1  0
192414  1  0
193415  1  0
193416  1  0
196417  1  0
199418  1  0
200419  1  6
201420  1  0
201421  1  0
202422  1  0
202423  1  0
203424  1  0
203425  1  0
204426  1  0
206427  1  0
207428  1  0
207429  1  0
210430  1  0
M  END
