
     RDKit          2D

456462  0  0  0  0  0  0  0  0999 V2000
   51.1522   -2.5569    0.0000 C   0  0  0  0  0  0  0  0  0  0  0  0
   52.4979   -1.8942    0.0000 N   0  0  0  0  0  0  0  0  0  0  0  0
   53.7447   -2.7282    0.0000 C   0  0  0  0  0  0  0  0  0  0  0  0
   53.6458   -4.2250    0.0000 C   0  0  0  0  0  0  0  0  0  0  0  0
   54.8925   -5.0590    0.0000 C   0  0  0  0  0  0  0  0  0  0  0  0
   56.2382   -4.3963    0.0000 C   0  0  0  0  0  0  0  0  0  0  0  0
   56.3371   -2.8995    0.0000 C   0  0  0  0  0  0  0  0  0  0  0  0
   55.0903   -2.0655    0.0000 C   0  0  0  0  0  0  0  0  0  0  0  0
   57.7911   -2.5311    0.0000 C   0  0  0  0  0  0  0  0  0  0  0  0
   58.5909   -3.8001    0.0000 O   0  0  0  0  0  0  0  0  0  0  0  0
   57.6311   -4.9529    0.0000 C   0  0  0  0  0  0  0  0  0  0  0  0
   57.9995   -6.4069    0.0000 O   0  0  0  0  0  0  0  0  0  0  0  0
   59.2757   -2.3167    0.0000 C   0  0  0  0  0  0  0  0  0  0  0  0
   59.8323   -0.9237    0.0000 C   0  0  0  0  0  0  0  0  0  0  0  0
   61.3169   -0.7093    0.0000 C   0  0  0  0  0  0  0  0  0  0  0  0
   62.2449   -1.8878    0.0000 C   0  0  0  0  0  0  0  0  0  0  0  0
   61.6883   -3.2807    0.0000 C   0  0  0  0  0  0  0  0  0  0  0  0
   60.2037   -3.4951    0.0000 C   0  0  0  0  0  0  0  0  0  0  0  0
   63.7295   -1.6733    0.0000 O   0  0  0  0  0  0  0  0  0  0  0  0
   58.9043    0.2547    0.0000 O   0  0  0  0  0  0  0  0  0  0  0  0
   57.4197    0.0403    0.0000 C   0  0  0  0  0  0  0  0  0  0  0  0
   56.8631   -1.3526    0.0000 C   0  0  0  0  0  0  0  0  0  0  0  0
   55.6383   -0.9170    0.0000 C   0  0  0  0  0  0  0  0  0  0  0  0
   55.1433   -0.2885    0.0000 C   0  0  0  0  0  0  0  0  0  0  0  0
   55.4402    0.4544    0.0000 C   0  0  0  0  0  0  0  0  0  0  0  0
   56.2320    0.5687    0.0000 C   0  0  0  0  0  0  0  0  0  0  0  0
   54.0791    2.1828    0.0000 O   0  0  0  0  0  0  0  0  0  0  0  0
   51.0533   -4.0536    0.0000 S   0  0  0  0  0  0  0  0  0  0  0  0
   49.9055   -1.7229    0.0000 N   0  0  0  0  0  0  0  0  0  0  0  0
   48.5598   -2.3856    0.0000 C   0  0  0  0  0  0  0  0  0  0  0  0
   47.3131   -1.5515    0.0000 C   0  0  0  0  0  0  0  0  0  0  0  0
   45.9674   -2.2143    0.0000 C   0  0  0  0  0  0  0  0  0  0  0  0
   45.8685   -3.7110    0.0000 O   0  0  0  0  0  0  0  0  0  0  0  0
   44.7206   -1.3802    0.0000 N   0  0  0  0  0  0  0  0  0  0  0  0
   43.3750   -2.0429    0.0000 C   0  0  0  0  0  0  0  0  0  0  0  0
   42.3371   -3.1259    0.0000 C   0  0  0  0  0  0  0  0  0  0  0  0
   40.8490   -3.3145    0.0000 O   0  0  0  0  0  0  0  0  0  0  0  0
   42.1282   -1.2089    0.0000 C   0  0  0  0  0  0  0  0  0  0  0  0
   42.2271    0.2878    0.0000 O   0  0  0  0  0  0  0  0  0  0  0  0
   40.7826   -1.8716    0.0000 N   0  0  0  0  0  0  0  0  0  0  0  0
   39.5358   -1.0376    0.0000 C   0  0  0  0  0  0  0  0  0  0  0  0
   38.6495    0.1726    0.0000 C   0  0  0  0  0  0  0  0  0  0  0  0
   39.2544    1.5452    0.0000 C   0  0  0  0  0  0  0  0  0  0  0  0
   38.3680    2.7553    0.0000 C   0  0  0  0  0  0  0  0  0  0  0  0
   38.9729    4.1280    0.0000 O   0  0  0  0  0  0  0  0  0  0  0  0
   36.8769    2.5929    0.0000 O   0  0  0  0  0  0  0  0  0  0  0  0
   38.1901   -1.7003    0.0000 C   0  0  0  0  0  0  0  0  0  0  0  0
   38.0912   -3.1970    0.0000 O   0  0  0  0  0  0  0  0  0  0  0  0
   36.9434   -0.8663    0.0000 N   0  0  0  0  0  0  0  0  0  0  0  0
   35.5977   -1.5290    0.0000 C   0  0  0  0  0  0  0  0  0  0  0  0
   34.5599   -2.6120    0.0000 C   0  0  0  0  0  0  0  0  0  0  0  0
   33.1030   -2.2546    0.0000 C   0  0  0  0  0  0  0  0  0  0  0  0
   32.0652   -3.3376    0.0000 C   0  0  0  0  0  0  0  0  0  0  0  0
   30.8587   -3.1942    0.0000 O   0  0  0  0  0  0  0  0  0  0  0  0
   32.4842   -4.7779    0.0000 O   0  0  0  0  0  0  0  0  0  0  0  0
   34.3510   -0.6949    0.0000 C   0  0  0  0  0  0  0  0  0  0  0  0
   34.4499    0.8018    0.0000 O   0  0  0  0  0  0  0  0  0  0  0  0
   33.0053   -1.3577    0.0000 N   0  0  0  0  0  0  0  0  0  0  0  0
   31.7585   -0.5236    0.0000 C   0  0  0  0  0  0  0  0  0  0  0  0
   30.8722    0.6865    0.0000 C   0  0  0  0  0  0  0  0  0  0  0  0
   31.4771    2.0592    0.0000 C   0  0  0  0  0  0  0  0  0  0  0  0
   30.5908    3.2693    0.0000 C   0  0  0  0  0  0  0  0  0  0  0  0
   32.5149    3.1422    0.0000 C   0  0  0  0  0  0  0  0  0  0  0  0
   30.4129   -1.1863    0.0000 C   0  0  0  0  0  0  0  0  0  0  0  0
   30.1856   -2.3799    0.0000 O   0  0  0  0  0  0  0  0  0  0  0  0
   29.1661   -0.3523    0.0000 N   0  0  0  0  0  0  0  0  0  0  0  0
   27.8204   -1.0150    0.0000 C   0  0  0  0  0  0  0  0  0  0  0  0
   26.7826   -2.0980    0.0000 C   0  0  0  0  0  0  0  0  0  0  0  0
   25.2931   -1.9209    0.0000 C   0  0  0  0  0  0  0  0  0  0  0  0
   26.5737   -0.1810    0.0000 C   0  0  0  0  0  0  0  0  0  0  0  0
   26.6726    1.3158    0.0000 O   0  0  0  0  0  0  0  0  0  0  0  0
   25.2280   -0.8437    0.0000 N   0  0  0  0  0  0  0  0  0  0  0  0
   23.9813   -0.0097    0.0000 C   0  0  0  0  0  0  0  0  0  0  0  0
   23.0950    1.2005    0.0000 C   0  0  0  0  0  0  0  0  0  0  0  0
   22.6356   -0.6724    0.0000 C   0  0  0  0  0  0  0  0  0  0  0  0
   22.5367   -2.1691    0.0000 O   0  0  0  0  0  0  0  0  0  0  0  0
   21.3889    0.1617    0.0000 N   0  0  0  0  0  0  0  0  0  0  0  0
   20.0432   -0.5010    0.0000 C   0  0  0  0  0  0  0  0  0  0  0  0
   19.0053   -1.5840    0.0000 C   0  0  0  0  0  0  0  0  0  0  0  0
   17.5485   -1.2267    0.0000 C   0  0  0  0  0  0  0  0  0  0  0  0
   16.5107   -2.3097    0.0000 C   0  0  0  0  0  0  0  0  0  0  0  0
   15.3042   -2.1663    0.0000 O   0  0  0  0  0  0  0  0  0  0  0  0
   16.9296   -3.7500    0.0000 O   0  0  0  0  0  0  0  0  0  0  0  0
   18.7964    0.3330    0.0000 C   0  0  0  0  0  0  0  0  0  0  0  0
   18.8953    1.8297    0.0000 O   0  0  0  0  0  0  0  0  0  0  0  0
   17.4508   -0.3297    0.0000 N   0  0  0  0  0  0  0  0  0  0  0  0
   16.2040    0.5043    0.0000 C   0  0  0  0  0  0  0  0  0  0  0  0
   15.3177    1.7144    0.0000 C   0  0  0  0  0  0  0  0  0  0  0  0
   14.8583   -0.1584    0.0000 C   0  0  0  0  0  0  0  0  0  0  0  0
   14.6310   -1.3520    0.0000 O   0  0  0  0  0  0  0  0  0  0  0  0
   13.6116    0.6756    0.0000 N   0  0  0  0  0  0  0  0  0  0  0  0
   12.2659    0.0129    0.0000 C   0  0  0  0  0  0  0  0  0  0  0  0
   11.2281   -1.0701    0.0000 C   0  0  0  0  0  0  0  0  0  0  0  0
    9.7712   -0.7128    0.0000 C   0  0  0  0  0  0  0  0  0  0  0  0
    8.6259   -1.6813    0.0000 C   0  0  0  0  0  0  0  0  0  0  0  0
    7.3508   -0.8913    0.0000 N   0  0  0  0  0  0  0  0  0  0  0  0
    7.7081    0.5655    0.0000 C   0  0  0  0  0  0  0  0  0  0  0  0
    9.2040    0.6759    0.0000 N   0  0  0  0  0  0  0  0  0  0  0  0
   11.0192    0.8469    0.0000 C   0  0  0  0  0  0  0  0  0  0  0  0
   11.1181    2.3437    0.0000 O   0  0  0  0  0  0  0  0  0  0  0  0
    9.6735    0.1842    0.0000 N   0  0  0  0  0  0  0  0  0  0  0  0
    8.4267    1.0183    0.0000 C   0  0  0  0  0  0  0  0  0  0  0  0
    7.5404    2.2284    0.0000 C   0  0  0  0  0  0  0  0  0  0  0  0
    8.1453    3.6011    0.0000 C   0  0  0  0  0  0  0  0  0  0  0  0
    7.2590    4.8112    0.0000 N   0  0  0  0  0  0  0  0  0  0  0  0
    9.6365    3.7635    0.0000 O   0  0  0  0  0  0  0  0  0  0  0  0
    7.0811    0.3556    0.0000 C   0  0  0  0  0  0  0  0  0  0  0  0
    6.6229   -1.0728    0.0000 O   0  0  0  0  0  0  0  0  0  0  0  0
    5.8343    1.1896    0.0000 N   0  0  0  0  0  0  0  0  0  0  0  0
    4.4887    0.5269    0.0000 C   0  0  0  0  0  0  0  0  0  0  0  0
    3.4508   -0.5561    0.0000 C   0  0  0  0  0  0  0  0  0  0  0  0
    1.9940   -0.1988    0.0000 C   0  0  0  0  0  0  0  0  0  0  0  0
    0.9561   -1.2818    0.0000 C   0  0  0  0  0  0  0  0  0  0  0  0
    0.7472    0.6352    0.0000 C   0  0  0  0  0  0  0  0  0  0  0  0
    3.2419    1.3609    0.0000 C   0  0  0  0  0  0  0  0  0  0  0  0
    3.3408    2.8576    0.0000 O   0  0  0  0  0  0  0  0  0  0  0  0
    1.8962    0.6982    0.0000 N   0  0  0  0  0  0  0  0  0  0  0  0
    0.6495    1.5322    0.0000 C   0  0  0  0  0  0  0  0  0  0  0  0
   -0.2368    2.7424    0.0000 C   0  0  0  0  0  0  0  0  0  0  0  0
    0.3680    4.1150    0.0000 S   0  0  0  0  0  0  0  0  0  0  0  0
   -0.6962    0.8695    0.0000 C   0  0  0  0  0  0  0  0  0  0  0  0
   -0.9768   -0.6040    0.0000 O   0  0  0  0  0  0  0  0  0  0  0  0
   -1.9429    1.7036    0.0000 N   0  0  0  0  0  0  0  0  0  0  0  0
   -3.2886    1.0408    0.0000 C   0  0  0  0  0  0  0  0  0  0  0  0
   -4.3265   -0.0421    0.0000 C   0  0  0  0  0  0  0  0  0  0  0  0
   -4.9313   -1.4148    0.0000 O   0  0  0  0  0  0  0  0  0  0  0  0
   -5.8160    0.1349    0.0000 C   0  0  0  0  0  0  0  0  0  0  0  0
   -4.5354    1.8749    0.0000 C   0  0  0  0  0  0  0  0  0  0  0  0
   -4.4364    3.3716    0.0000 O   0  0  0  0  0  0  0  0  0  0  0  0
   -5.8810    1.2122    0.0000 N   0  0  0  0  0  0  0  0  0  0  0  0
   -7.1278    2.0462    0.0000 C   0  0  0  0  0  0  0  0  0  0  0  0
   -8.0141    3.2563    0.0000 C   0  0  0  0  0  0  0  0  0  0  0  0
   -7.4092    4.6290    0.0000 C   0  0  0  0  0  0  0  0  0  0  0  0
   -8.2955    5.8391    0.0000 C   0  0  0  0  0  0  0  0  0  0  0  0
   -6.3714    5.7120    0.0000 C   0  0  0  0  0  0  0  0  0  0  0  0
   -8.4735    1.3835    0.0000 C   0  0  0  0  0  0  0  0  0  0  0  0
   -8.5724   -0.1132    0.0000 O   0  0  0  0  0  0  0  0  0  0  0  0
   -9.7202    2.2175    0.0000 N   0  0  0  0  0  0  0  0  0  0  0  0
  -11.0659    1.5548    0.0000 C   0  0  0  0  0  0  0  0  0  0  0  0
  -12.1037    0.4718    0.0000 C   0  0  0  0  0  0  0  0  0  0  0  0
  -13.5605    0.8291    0.0000 C   0  0  0  0  0  0  0  0  0  0  0  0
  -14.5984   -0.2538    0.0000 C   0  0  0  0  0  0  0  0  0  0  0  0
  -14.8073    1.6632    0.0000 C   0  0  0  0  0  0  0  0  0  0  0  0
  -12.3126    2.3888    0.0000 C   0  0  0  0  0  0  0  0  0  0  0  0
  -12.2137    3.8856    0.0000 O   0  0  0  0  0  0  0  0  0  0  0  0
  -13.6583    1.7261    0.0000 N   0  0  0  0  0  0  0  0  0  0  0  0
  -14.9050    2.5602    0.0000 C   0  0  0  0  0  0  0  0  0  0  0  0
  -15.7914    3.7703    0.0000 C   0  0  0  0  0  0  0  0  0  0  0  0
  -15.1865    5.1429    0.0000 C   0  0  0  0  0  0  0  0  0  0  0  0
  -16.0728    6.3531    0.0000 C   0  0  0  0  0  0  0  0  0  0  0  0
  -15.4679    7.7257    0.0000 O   0  0  0  0  0  0  0  0  0  0  0  0
  -17.5727    6.3736    0.0000 O   0  0  0  0  0  0  0  0  0  0  0  0
  -16.2507    1.8975    0.0000 C   0  0  0  0  0  0  0  0  0  0  0  0
  -16.3496    0.4007    0.0000 O   0  0  0  0  0  0  0  0  0  0  0  0
  -17.4975    2.7315    0.0000 N   0  0  0  0  0  0  0  0  0  0  0  0
  -18.8431    2.0688    0.0000 C   0  0  0  0  0  0  0  0  0  0  0  0
  -19.2367    0.6213    0.0000 C   0  0  0  0  0  0  0  0  0  0  0  0
  -20.0393   -0.6458    0.0000 C   0  0  0  0  0  0  0  0  0  0  0  0
  -21.1799   -1.6201    0.0000 C   0  0  0  0  0  0  0  0  0  0  0  0
  -22.5569   -2.2149    0.0000 C   0  0  0  0  0  0  0  0  0  0  0  0
  -17.5780    1.2630    0.0000 C   0  0  0  0  0  0  0  0  0  0  0  0
  -18.8937    3.5679    0.0000 C   0  0  0  0  0  0  0  0  0  0  0  0
  -17.5289    4.1901    0.0000 O   0  0  0  0  0  0  0  0  0  0  0  0
  -19.3840    4.9855    0.0000 N   0  0  0  0  0  0  0  0  0  0  0  0
  -20.2703    6.1957    0.0000 C   0  0  0  0  0  0  0  0  0  0  0  0
  -19.9494    7.6610    0.0000 C   0  0  0  0  0  0  0  0  0  0  0  0
  -21.4739    7.0908    0.0000 C   0  0  0  0  0  0  0  0  0  0  0  0
  -20.7682    8.4144    0.0000 O   0  0  0  0  0  0  0  0  0  0  0  0
  -22.8879    7.5914    0.0000 N   0  0  0  0  0  0  0  0  0  0  0  0
  -24.3867    7.6530    0.0000 C   0  0  0  0  0  0  0  0  0  0  0  0
  -25.3322    8.8174    0.0000 C   0  0  0  0  0  0  0  0  0  0  0  0
  -24.6297   10.1428    0.0000 C   0  0  0  0  0  0  0  0  0  0  0  0
  -26.6190    9.5883    0.0000 C   0  0  0  0  0  0  0  0  0  0  0  0
  -26.5948   11.0881    0.0000 C   0  0  0  0  0  0  0  0  0  0  0  0
  -25.8370    7.2701    0.0000 C   0  0  0  0  0  0  0  0  0  0  0  0
  -26.5952    8.5643    0.0000 O   0  0  0  0  0  0  0  0  0  0  0  0
  -27.1100    6.4767    0.0000 N   0  0  0  0  0  0  0  0  0  0  0  0
  -28.0925    5.3433    0.0000 C   0  0  0  0  0  0  0  0  0  0  0  0
  -29.5925    5.3301    0.0000 C   0  0  0  0  0  0  0  0  0  0  0  0
  -30.3539    6.6224    0.0000 C   0  0  0  0  0  0  0  0  0  0  0  0
  -31.8538    6.6092    0.0000 C   0  0  0  0  0  0  0  0  0  0  0  0
  -32.6153    7.9016    0.0000 N   0  0  0  0  0  0  0  0  0  0  0  0
  -32.5924    5.3036    0.0000 O   0  0  0  0  0  0  0  0  0  0  0  0
  -28.6974    3.9706    0.0000 C   0  0  0  0  0  0  0  0  0  0  0  0
  -30.1449    4.3642    0.0000 O   0  0  0  0  0  0  0  0  0  0  0  0
  -28.8708    2.4807    0.0000 N   0  0  0  0  0  0  0  0  0  0  0  0
  -28.5973    1.0058    0.0000 C   0  0  0  0  0  0  0  0  0  0  0  0
  -27.9013   -0.3229    0.0000 C   0  0  0  0  0  0  0  0  0  0  0  0
  -26.8445   -1.3874    0.0000 C   0  0  0  0  0  0  0  0  0  0  0  0
  -25.5209   -2.0932    0.0000 C   0  0  0  0  0  0  0  0  0  0  0  0
  -24.0481   -2.3774    0.0000 C   0  0  0  0  0  0  0  0  0  0  0  0
  -30.0541    1.3632    0.0000 C   0  0  0  0  0  0  0  0  0  0  0  0
  -29.5222   -0.1751    0.0000 C   0  0  0  0  0  0  0  0  0  0  0  0
  -29.3152   -1.6608    0.0000 O   0  0  0  0  0  0  0  0  0  0  0  0
  -31.0073    0.0354    0.0000 N   0  0  0  0  0  0  0  0  0  0  0  0
  -31.9322   -1.1456    0.0000 C   0  0  0  0  0  0  0  0  0  0  0  0
  -32.3974   -2.5716    0.0000 C   0  0  0  0  0  0  0  0  0  0  0  0
  -32.3468   -4.0707    0.0000 O   0  0  0  0  0  0  0  0  0  0  0  0
  -33.8162   -3.0583    0.0000 C   0  0  0  0  0  0  0  0  0  0  0  0
  -33.4174   -0.9351    0.0000 C   0  0  0  0  0  0  0  0  0  0  0  0
  -33.9777    0.4564    0.0000 O   0  0  0  0  0  0  0  0  0  0  0  0
  -34.3422   -2.1160    0.0000 N   0  0  0  0  0  0  0  0  0  0  0  0
  -35.8274   -1.9055    0.0000 C   0  0  0  0  0  0  0  0  0  0  0  0
  -37.1510   -1.1998    0.0000 C   0  0  0  0  0  0  0  0  0  0  0  0
  -37.2016    0.2994    0.0000 C   0  0  0  0  0  0  0  0  0  0  0  0
  -36.7523   -3.0865    0.0000 C   0  0  0  0  0  0  0  0  0  0  0  0
  -36.1920   -4.4779    0.0000 O   0  0  0  0  0  0  0  0  0  0  0  0
  -38.2374   -2.8760    0.0000 N   0  0  0  0  0  0  0  0  0  0  0  0
  -39.1623   -4.0569    0.0000 C   0  0  0  0  0  0  0  0  0  0  0  0
  -39.6275   -5.4830    0.0000 C   0  0  0  0  0  0  0  0  0  0  0  0
  -41.0951   -5.7931    0.0000 C   0  0  0  0  0  0  0  0  0  0  0  0
  -41.5602   -7.2192    0.0000 C   0  0  0  0  0  0  0  0  0  0  0  0
  -43.0278   -7.5293    0.0000 N   0  0  0  0  0  0  0  0  0  0  0  0
  -43.4930   -8.9554    0.0000 C   0  0  0  0  0  0  0  0  0  0  0  0
  -44.9874   -9.0843    0.0000 N   0  0  0  0  0  0  0  0  0  0  0  0
  -42.4906  -10.0713    0.0000 N   0  0  0  0  0  0  0  0  0  0  0  0
  -40.6474   -3.8464    0.0000 C   0  0  0  0  0  0  0  0  0  0  0  0
  -41.2077   -2.4550    0.0000 O   0  0  0  0  0  0  0  0  0  0  0  0
  -41.5723   -5.0274    0.0000 N   0  0  0  0  0  0  0  0  0  0  0  0
  -43.0575   -4.8169    0.0000 C   0  0  0  0  0  0  0  0  0  0  0  0
  -44.3811   -4.1111    0.0000 C   0  0  0  0  0  0  0  0  0  0  0  0
  -44.4317   -2.6120    0.0000 C   0  0  0  0  0  0  0  0  0  0  0  0
  -45.7553   -1.9062    0.0000 C   0  0  0  0  0  0  0  0  0  0  0  0
  -45.8059   -0.4071    0.0000 O   0  0  0  0  0  0  0  0  0  0  0  0
  -47.0283   -2.6996    0.0000 O   0  0  0  0  0  0  0  0  0  0  0  0
  -43.9823   -5.9978    0.0000 C   0  0  0  0  0  0  0  0  0  0  0  0
  -43.7754   -7.4835    0.0000 O   0  0  0  0  0  0  0  0  0  0  0  0
  -45.4675   -5.7873    0.0000 N   0  0  0  0  0  0  0  0  0  0  0  0
  -46.3924   -6.9683    0.0000 C   0  0  0  0  0  0  0  0  0  0  0  0
  -46.8575   -8.3943    0.0000 C   0  0  0  0  0  0  0  0  0  0  0  0
  -48.3251   -8.7045    0.0000 C   0  0  0  0  0  0  0  0  0  0  0  0
  -48.7903  -10.1305    0.0000 C   0  0  0  0  0  0  0  0  0  0  0  0
  -50.2579  -10.4407    0.0000 N   0  0  0  0  0  0  0  0  0  0  0  0
  -47.7879  -11.2464    0.0000 O   0  0  0  0  0  0  0  0  0  0  0  0
  -47.8775   -6.7578    0.0000 C   0  0  0  0  0  0  0  0  0  0  0  0
  -48.9394   -7.8172    0.0000 O   0  0  0  0  0  0  0  0  0  0  0  0
  -48.4378   -5.3664    0.0000 O   0  0  0  0  0  0  0  0  0  0  0  0
   52.4136   -0.3966    0.0000 H   0  0  0  0  0  0  0  0  0  0  0  0
   52.3001   -4.8877    0.0000 H   0  0  0  0  0  0  0  0  0  0  0  0
   54.7936   -6.5557    0.0000 H   0  0  0  0  0  0  0  0  0  0  0  0
   54.8241   -0.5893    0.0000 H   0  0  0  0  0  0  0  0  0  0  0  0
   61.8735    0.6836    0.0000 H   0  0  0  0  0  0  0  0  0  0  0  0
   62.6163   -4.4592    0.0000 H   0  0  0  0  0  0  0  0  0  0  0  0
   59.6471   -4.8880    0.0000 H   0  0  0  0  0  0  0  0  0  0  0  0
   64.6575   -2.8518    0.0000 H   0  0  0  0  0  0  0  0  0  0  0  0
   54.8219   -2.9600    0.0000 H   0  0  0  0  0  0  0  0  0  0  0  0
   52.9509   -0.4205    0.0000 H   0  0  0  0  0  0  0  0  0  0  0  0
   57.0483    2.6117    0.0000 H   0  0  0  0  0  0  0  0  0  0  0  0
   54.6357    3.5757    0.0000 H   0  0  0  0  0  0  0  0  0  0  0  0
   50.0044   -0.2261    0.0000 H   0  0  0  0  0  0  0  0  0  0  0  0
   47.5220   -3.4686    0.0000 H   0  0  0  0  0  0  0  0  0  0  0  0
   49.4461   -3.5957    0.0000 H   0  0  0  0  0  0  0  0  0  0  0  0
   46.4268   -0.3414    0.0000 H   0  0  0  0  0  0  0  0  0  0  0  0
   48.3509   -0.4686    0.0000 H   0  0  0  0  0  0  0  0  0  0  0  0
   44.8196    0.1165    0.0000 H   0  0  0  0  0  0  0  0  0  0  0  0
   44.2613   -3.2531    0.0000 H   0  0  0  0  0  0  0  0  0  0  0  0
   41.7323   -4.4986    0.0000 H   0  0  0  0  0  0  0  0  0  0  0  0
   43.5839   -3.9599    0.0000 H   0  0  0  0  0  0  0  0  0  0  0  0
   39.8425   -3.8516    0.0000 H   0  0  0  0  0  0  0  0  0  0  0  0
   40.5019   -3.3451    0.0000 H   0  0  0  0  0  0  0  0  0  0  0  0
   40.6979   -0.0892    0.0000 H   0  0  0  0  0  0  0  0  0  0  0  0
   37.5137    1.1523    0.0000 H   0  0  0  0  0  0  0  0  0  0  0  0
   37.3804   -0.6271    0.0000 H   0  0  0  0  0  0  0  0  0  0  0  0
   40.2922    2.6282    0.0000 H   0  0  0  0  0  0  0  0  0  0  0  0
   40.5935    0.8694    0.0000 H   0  0  0  0  0  0  0  0  0  0  0  0
   36.8591    0.6314    0.0000 H   0  0  0  0  0  0  0  0  0  0  0  0
   36.4840   -2.7391    0.0000 H   0  0  0  0  0  0  0  0  0  0  0  0
   33.9550   -3.9846    0.0000 H   0  0  0  0  0  0  0  0  0  0  0  0
   35.8066   -3.4460    0.0000 H   0  0  0  0  0  0  0  0  0  0  0  0
   31.8563   -1.4206    0.0000 H   0  0  0  0  0  0  0  0  0  0  0  0
   32.9925   -0.7587    0.0000 H   0  0  0  0  0  0  0  0  0  0  0  0
   32.5471   -2.7860    0.0000 H   0  0  0  0  0  0  0  0  0  0  0  0
   32.9207    0.4248    0.0000 H   0  0  0  0  0  0  0  0  0  0  0  0
   29.6255    1.5206    0.0000 H   0  0  0  0  0  0  0  0  0  0  0  0
   29.6032   -0.1131    0.0000 H   0  0  0  0  0  0  0  0  0  0  0  0
   32.8162    1.3833    0.0000 H   0  0  0  0  0  0  0  0  0  0  0  0
   31.0238    4.7054    0.0000 H   0  0  0  0  0  0  0  0  0  0  0  0
   29.3440    4.1033    0.0000 H   0  0  0  0  0  0  0  0  0  0  0  0
   29.4286    2.3209    0.0000 H   0  0  0  0  0  0  0  0  0  0  0  0
   32.2747    4.6228    0.0000 H   0  0  0  0  0  0  0  0  0  0  0  0
   33.8606    3.8049    0.0000 H   0  0  0  0  0  0  0  0  0  0  0  0
   33.4013    1.9320    0.0000 H   0  0  0  0  0  0  0  0  0  0  0  0
   29.0818    1.1453    0.0000 H   0  0  0  0  0  0  0  0  0  0  0  0
   28.7068   -2.2252    0.0000 H   0  0  0  0  0  0  0  0  0  0  0  0
   26.1777   -3.4706    0.0000 H   0  0  0  0  0  0  0  0  0  0  0  0
   28.0294   -2.9320    0.0000 H   0  0  0  0  0  0  0  0  0  0  0  0
   24.2879   -2.8237    0.0000 H   0  0  0  0  0  0  0  0  0  0  0  0
   24.0790   -0.9067    0.0000 H   0  0  0  0  0  0  0  0  0  0  0  0
   25.2153   -0.2448    0.0000 H   0  0  0  0  0  0  0  0  0  0  0  0
   24.9474   -2.3172    0.0000 H   0  0  0  0  0  0  0  0  0  0  0  0
   25.0191    1.0733    0.0000 H   0  0  0  0  0  0  0  0  0  0  0  0
   23.6998    2.5731    0.0000 H   0  0  0  0  0  0  0  0  0  0  0  0
   21.9592    2.1803    0.0000 H   0  0  0  0  0  0  0  0  0  0  0  0
   21.8259    0.4008    0.0000 H   0  0  0  0  0  0  0  0  0  0  0  0
   21.3046    1.6593    0.0000 H   0  0  0  0  0  0  0  0  0  0  0  0
   20.9295   -1.7112    0.0000 H   0  0  0  0  0  0  0  0  0  0  0  0
   18.4005   -2.9567    0.0000 H   0  0  0  0  0  0  0  0  0  0  0  0
   20.2521   -2.4181    0.0000 H   0  0  0  0  0  0  0  0  0  0  0  0
   16.3018   -0.3927    0.0000 H   0  0  0  0  0  0  0  0  0  0  0  0
   17.4380    0.2692    0.0000 H   0  0  0  0  0  0  0  0  0  0  0  0
   16.9926   -1.7580    0.0000 H   0  0  0  0  0  0  0  0  0  0  0  0
   17.2419    1.5873    0.0000 H   0  0  0  0  0  0  0  0  0  0  0  0
   15.9226    3.0871    0.0000 H   0  0  0  0  0  0  0  0  0  0  0  0
   14.1819    2.6942    0.0000 H   0  0  0  0  0  0  0  0  0  0  0  0
   14.0486    0.9148    0.0000 H   0  0  0  0  0  0  0  0  0  0  0  0
   13.5273    2.1733    0.0000 H   0  0  0  0  0  0  0  0  0  0  0  0
   13.1522   -1.1972    0.0000 H   0  0  0  0  0  0  0  0  0  0  0  0
   10.6232   -2.4427    0.0000 H   0  0  0  0  0  0  0  0  0  0  0  0
   12.4748   -1.9041    0.0000 H   0  0  0  0  0  0  0  0  0  0  0  0
    8.7362   -3.1773    0.0000 H   0  0  0  0  0  0  0  0  0  0  0  0
    5.9622   -1.4585    0.0000 H   0  0  0  0  0  0  0  0  0  0  0  0
    6.6071    1.5843    0.0000 H   0  0  0  0  0  0  0  0  0  0  0  0
    9.2154   -1.2441    0.0000 H   0  0  0  0  0  0  0  0  0  0  0  0
    9.4646    2.1013    0.0000 H   0  0  0  0  0  0  0  0  0  0  0  0
    6.4046    3.2082    0.0000 H   0  0  0  0  0  0  0  0  0  0  0  0
    6.1834    1.5894    0.0000 H   0  0  0  0  0  0  0  0  0  0  0  0
    7.8638    6.1838    0.0000 H   0  0  0  0  0  0  0  0  0  0  0  0
    5.7678    4.6487    0.0000 H   0  0  0  0  0  0  0  0  0  0  0  0
    5.7501    2.6872    0.0000 H   0  0  0  0  0  0  0  0  0  0  0  0
    5.3750   -0.6833    0.0000 H   0  0  0  0  0  0  0  0  0  0  0  0
    3.0178   -1.9922    0.0000 H   0  0  0  0  0  0  0  0  0  0  0  0
    4.6976   -1.3901    0.0000 H   0  0  0  0  0  0  0  0  0  0  0  0
    1.8835    1.2971    0.0000 H   0  0  0  0  0  0  0  0  0  0  0  0
   -0.5439   -1.2876    0.0000 H   0  0  0  0  0  0  0  0  0  0  0  0
    0.3513   -2.6544    0.0000 H   0  0  0  0  0  0  0  0  0  0  0  0
    2.0919   -2.2616    0.0000 H   0  0  0  0  0  0  0  0  0  0  0  0
    0.4810    2.1114    0.0000 H   0  0  0  0  0  0  0  0  0  0  0  0
   -0.7409    0.4466    0.0000 H   0  0  0  0  0  0  0  0  0  0  0  0
   -0.0204   -0.6534    0.0000 H   0  0  0  0  0  0  0  0  0  0  0  0
    1.4381   -0.7301    0.0000 H   0  0  0  0  0  0  0  0  0  0  0  0
    1.6873    2.6152    0.0000 H   0  0  0  0  0  0  0  0  0  0  0  0
   -1.3726    3.7222    0.0000 H   0  0  0  0  0  0  0  0  0  0  0  0
   -1.5939    2.1034    0.0000 H   0  0  0  0  0  0  0  0  0  0  0  0
   -0.5183    5.3252    0.0000 H   0  0  0  0  0  0  0  0  0  0  0  0
   -2.0272    3.2012    0.0000 H   0  0  0  0  0  0  0  0  0  0  0  0
   -2.4023   -0.1693    0.0000 H   0  0  0  0  0  0  0  0  0  0  0  0
   -3.0797   -0.8762    0.0000 H   0  0  0  0  0  0  0  0  0  0  0  0
   -4.0450   -2.6249    0.0000 H   0  0  0  0  0  0  0  0  0  0  0  0
   -6.8211   -0.7678    0.0000 H   0  0  0  0  0  0  0  0  0  0  0  0
   -7.0300    1.1492    0.0000 H   0  0  0  0  0  0  0  0  0  0  0  0
   -5.8938    1.8111    0.0000 H   0  0  0  0  0  0  0  0  0  0  0  0
   -6.1616   -0.2614    0.0000 H   0  0  0  0  0  0  0  0  0  0  0  0
   -5.9657    2.9946    0.0000 H   0  0  0  0  0  0  0  0  0  0  0  0
   -9.2608    4.0904    0.0000 H   0  0  0  0  0  0  0  0  0  0  0  0
   -9.2832    2.4567    0.0000 H   0  0  0  0  0  0  0  0  0  0  0  0
   -6.0701    3.9531    0.0000 H   0  0  0  0  0  0  0  0  0  0  0  0
   -7.8625    7.2753    0.0000 H   0  0  0  0  0  0  0  0  0  0  0  0
   -9.5423    6.6732    0.0000 H   0  0  0  0  0  0  0  0  0  0  0  0
   -9.4577    4.8907    0.0000 H   0  0  0  0  0  0  0  0  0  0  0  0
   -6.6117    7.1926    0.0000 H   0  0  0  0  0  0  0  0  0  0  0  0
   -5.0257    6.3747    0.0000 H   0  0  0  0  0  0  0  0  0  0  0  0
   -5.4851    4.5018    0.0000 H   0  0  0  0  0  0  0  0  0  0  0  0
   -9.8045    3.7151    0.0000 H   0  0  0  0  0  0  0  0  0  0  0  0
  -10.1796    0.3447    0.0000 H   0  0  0  0  0  0  0  0  0  0  0  0
  -12.5368   -0.9643    0.0000 H   0  0  0  0  0  0  0  0  0  0  0  0
  -10.8570   -0.3622    0.0000 H   0  0  0  0  0  0  0  0  0  0  0  0
  -13.6711    2.3251    0.0000 H   0  0  0  0  0  0  0  0  0  0  0  0
  -16.0865   -0.4425    0.0000 H   0  0  0  0  0  0  0  0  0  0  0  0
  -15.2033   -1.6265    0.0000 H   0  0  0  0  0  0  0  0  0  0  0  0
  -13.4626   -1.2336    0.0000 H   0  0  0  0  0  0  0  0  0  0  0  0
  -15.0735    3.1394    0.0000 H   0  0  0  0  0  0  0  0  0  0  0  0
  -16.3073    1.6573    0.0000 H   0  0  0  0  0  0  0  0  0  0  0  0
  -15.5750    0.3745    0.0000 H   0  0  0  0  0  0  0  0  0  0  0  0
  -14.1164    0.2978    0.0000 H   0  0  0  0  0  0  0  0  0  0  0  0
  -13.7429    3.5086    0.0000 H   0  0  0  0  0  0  0  0  0  0  0  0
  -16.7993    4.8812    0.0000 H   0  0  0  0  0  0  0  0  0  0  0  0
  -17.0604    2.9706    0.0000 H   0  0  0  0  0  0  0  0  0  0  0  0
  -14.1486    6.2259    0.0000 H   0  0  0  0  0  0  0  0  0  0  0  0
  -13.8474    4.4671    0.0000 H   0  0  0  0  0  0  0  0  0  0  0  0
  -17.3986    4.2282    0.0000 H   0  0  0  0  0  0  0  0  0  0  0  0
  -17.7376    0.6756    0.0000 H   0  0  0  0  0  0  0  0  0  0  0  0
  -18.4118   -0.6315    0.0000 H   0  0  0  0  0  0  0  0  0  0  0  0
  -18.6493   -1.2095    0.0000 H   0  0  0  0  0  0  0  0  0  0  0  0
  -19.4479   -2.0243    0.0000 H   0  0  0  0  0  0  0  0  0  0  0  0
  -19.9107   -2.4197    0.0000 H   0  0  0  0  0  0  0  0  0  0  0  0
  -21.2041   -3.1199    0.0000 H   0  0  0  0  0  0  0  0  0  0  0  0
  -22.1740   -3.6652    0.0000 H   0  0  0  0  0  0  0  0  0  0  0  0
  -17.5287   -0.4023    0.0000 H   0  0  0  0  0  0  0  0  0  0  0  0
  -16.4674    0.3173    0.0000 H   0  0  0  0  0  0  0  0  0  0  0  0
  -16.6858    2.2333    0.0000 H   0  0  0  0  0  0  0  0  0  0  0  0
  -18.1500    5.8384    0.0000 H   0  0  0  0  0  0  0  0  0  0  0  0
  -18.8027    6.5059    0.0000 H   0  0  0  0  0  0  0  0  0  0  0  0
  -18.5200    8.1157    0.0000 H   0  0  0  0  0  0  0  0  0  0  0  0
  -20.1490    9.1476    0.0000 H   0  0  0  0  0  0  0  0  0  0  0  0
  -21.3887    8.0834    0.0000 H   0  0  0  0  0  0  0  0  0  0  0  0
  -22.6037    9.0642    0.0000 H   0  0  0  0  0  0  0  0  0  0  0  0
  -23.5557    8.9018    0.0000 H   0  0  0  0  0  0  0  0  0  0  0  0
  -26.5598    7.9555    0.0000 H   0  0  0  0  0  0  0  0  0  0  0  0
  -25.5826   11.5093    0.0000 H   0  0  0  0  0  0  0  0  0  0  0  0
  -23.8139   11.3519    0.0000 H   0  0  0  0  0  0  0  0  0  0  0  0
  -23.4254    9.6103    0.0000 H   0  0  0  0  0  0  0  0  0  0  0  0
  -28.0918    9.8725    0.0000 H   0  0  0  0  0  0  0  0  0  0  0  0
  -27.3215    8.2630    0.0000 H   0  0  0  0  0  0  0  0  0  0  0  0
  -27.8816   11.8589    0.0000 H   0  0  0  0  0  0  0  0  0  0  0  0
  -26.0591   12.4892    0.0000 H   0  0  0  0  0  0  0  0  0  0  0  0
  -25.0970   11.1687    0.0000 H   0  0  0  0  0  0  0  0  0  0  0  0
  -28.0842    7.6172    0.0000 H   0  0  0  0  0  0  0  0  0  0  0  0
  -28.5508    6.7716    0.0000 H   0  0  0  0  0  0  0  0  0  0  0  0
  -30.9974    4.8046    0.0000 H   0  0  0  0  0  0  0  0  0  0  0  0
  -29.6840    3.8329    0.0000 H   0  0  0  0  0  0  0  0  0  0  0  0
  -30.6274    8.0973    0.0000 H   0  0  0  0  0  0  0  0  0  0  0  0
  -29.0235    7.3152    0.0000 H   0  0  0  0  0  0  0  0  0  0  0  0
  -34.1152    7.8884    0.0000 H   0  0  0  0  0  0  0  0  0  0  0  0
  -31.8767    9.2072    0.0000 H   0  0  0  0  0  0  0  0  0  0  0  0
  -30.3699    2.4301    0.0000 H   0  0  0  0  0  0  0  0  0  0  0  0
  -28.4370   -1.7240    0.0000 H   0  0  0  0  0  0  0  0  0  0  0  0
  -29.3329   -0.7706    0.0000 H   0  0  0  0  0  0  0  0  0  0  0  0
  -27.1251   -2.8609    0.0000 H   0  0  0  0  0  0  0  0  0  0  0  0
  -28.0806   -2.2372    0.0000 H   0  0  0  0  0  0  0  0  0  0  0  0
  -25.1742   -3.5526    0.0000 H   0  0  0  0  0  0  0  0  0  0  0  0
  -26.5880   -3.1473    0.0000 H   0  0  0  0  0  0  0  0  0  0  0  0
  -24.1096   -3.8762    0.0000 H   0  0  0  0  0  0  0  0  0  0  0  0
  -31.3232    0.5635    0.0000 H   0  0  0  0  0  0  0  0  0  0  0  0
  -31.1899    2.3429    0.0000 H   0  0  0  0  0  0  0  0  0  0  0  0
  -29.7994    2.8414    0.0000 H   0  0  0  0  0  0  0  0  0  0  0  0
  -31.7331    1.3481    0.0000 H   0  0  0  0  0  0  0  0  0  0  0  0
  -30.6086   -1.8513    0.0000 H   0  0  0  0  0  0  0  0  0  0  0  0
  -30.9122   -2.7821    0.0000 H   0  0  0  0  0  0  0  0  0  0  0  0
  -31.0232   -4.7765    0.0000 H   0  0  0  0  0  0  0  0  0  0  0  0
  -34.3302   -4.3078    0.0000 H   0  0  0  0  0  0  0  0  0  0  0  0
  -35.3501   -2.6713    0.0000 H   0  0  0  0  0  0  0  0  0  0  0  0
  -34.6136   -1.5819    0.0000 H   0  0  0  0  0  0  0  0  0  0  0  0
  -33.9557   -3.5654    0.0000 H   0  0  0  0  0  0  0  0  0  0  0  0
  -35.1918   -0.5468    0.0000 H   0  0  0  0  0  0  0  0  0  0  0  0
  -38.5994   -0.8098    0.0000 H   0  0  0  0  0  0  0  0  0  0  0  0
  -37.9474   -2.4709    0.0000 H   0  0  0  0  0  0  0  0  0  0  0  0
  -38.5252    1.0051    0.0000 H   0  0  0  0  0  0  0  0  0  0  0  0
  -36.7364    1.7254    0.0000 H   0  0  0  0  0  0  0  0  0  0  0  0
  -35.7019    0.2715    0.0000 H   0  0  0  0  0  0  0  0  0  0  0  0
  -38.9631   -1.5632    0.0000 H   0  0  0  0  0  0  0  0  0  0  0  0
  -37.8387   -4.7627    0.0000 H   0  0  0  0  0  0  0  0  0  0  0  0
  -39.3945   -6.9648    0.0000 H   0  0  0  0  0  0  0  0  0  0  0  0
  -38.1423   -5.6935    0.0000 H   0  0  0  0  0  0  0  0  0  0  0  0
  -42.5802   -5.5826    0.0000 H   0  0  0  0  0  0  0  0  0  0  0  0
  -41.8437   -4.4933    0.0000 H   0  0  0  0  0  0  0  0  0  0  0  0
  -41.5096   -8.7183    0.0000 H   0  0  0  0  0  0  0  0  0  0  0  0
  -40.1118   -7.6091    0.0000 H   0  0  0  0  0  0  0  0  0  0  0  0
  -44.2704   -6.6892    0.0000 H   0  0  0  0  0  0  0  0  0  0  0  0
  -45.4258  -10.6916    0.0000 H   0  0  0  0  0  0  0  0  0  0  0  0
  -45.8418   -8.0377    0.0000 H   0  0  0  0  0  0  0  0  0  0  0  0
  -42.9558  -11.4973    0.0000 H   0  0  0  0  0  0  0  0  0  0  0  0
  -41.0230   -9.7611    0.0000 H   0  0  0  0  0  0  0  0  0  0  0  0
  -41.3654   -6.5130    0.0000 H   0  0  0  0  0  0  0  0  0  0  0  0
  -42.4219   -3.4582    0.0000 H   0  0  0  0  0  0  0  0  0  0  0  0
  -45.8295   -3.7212    0.0000 H   0  0  0  0  0  0  0  0  0  0  0  0
  -45.1775   -5.3822    0.0000 H   0  0  0  0  0  0  0  0  0  0  0  0
  -43.9665   -1.1859    0.0000 H   0  0  0  0  0  0  0  0  0  0  0  0
  -42.9319   -2.6399    0.0000 H   0  0  0  0  0  0  0  0  0  0  0  0
  -46.1932   -4.4746    0.0000 H   0  0  0  0  0  0  0  0  0  0  0  0
  -45.0688   -7.6740    0.0000 H   0  0  0  0  0  0  0  0  0  0  0  0
  -46.8069   -9.8935    0.0000 H   0  0  0  0  0  0  0  0  0  0  0  0
  -45.3656   -8.2392    0.0000 H   0  0  0  0  0  0  0  0  0  0  0  0
  -49.8103   -8.4940    0.0000 H   0  0  0  0  0  0  0  0  0  0  0  0
  -48.9097   -7.3231    0.0000 H   0  0  0  0  0  0  0  0  0  0  0  0
  -50.7231  -11.8667    0.0000 H   0  0  0  0  0  0  0  0  0  0  0  0
  -51.2603   -9.3248    0.0000 H   0  0  0  0  0  0  0  0  0  0  0  0
  1  2  1  0
  2  3  1  0
  3  4  2  0
  4  5  1  0
  5  6  2  0
  6  7  1  0
  7  8  2  0
  7  9  1  0
  9 10  1  0
 10 11  1  0
 11 12  2  0
  9 13  1  0
 13 14  1  0
 14 15  2  0
 15 16  1  0
 16 17  2  0
 17 18  1  0
 16 19  1  0
 14 20  1  0
 20 21  1  0
 21 22  2  0
 22 23  1  0
 23 24  2  0
 24 25  1  0
 25 26  2  0
 25 27  1  0
  1 28  2  0
  1 29  1  0
 29 30  1  0
 30 31  1  0
 31 32  1  0
 32 33  2  0
 32 34  1  0
 34 35  1  0
 35 36  1  0
 36 37  1  0
 35 38  1  0
 38 39  2  0
 38 40  1  0
 40 41  1  0
 41 42  1  0
 42 43  1  0
 43 44  1  0
 44 45  2  0
 44 46  1  0
 41 47  1  0
 47 48  2  0
 47 49  1  0
 49 50  1  0
 50 51  1  0
 51 52  1  0
 52 53  1  0
 53 54  2  0
 53 55  1  0
 50 56  1  0
 56 57  2  0
 56 58  1  0
 58 59  1  0
 59 60  1  0
 60 61  1  0
 61 62  1  0
 61 63  1  0
 59 64  1  0
 64 65  2  0
 64 66  1  0
 66 67  1  0
 67 68  1  0
 68 69  1  0
 67 70  1  0
 70 71  2  0
 70 72  1  0
 72 73  1  0
 73 74  1  0
 73 75  1  0
 75 76  2  0
 75 77  1  0
 77 78  1  0
 78 79  1  0
 79 80  1  0
 80 81  1  0
 81 82  2  0
 81 83  1  0
 78 84  1  0
 84 85  2  0
 84 86  1  0
 86 87  1  0
 87 88  1  0
 87 89  1  0
 89 90  2  0
 89 91  1  0
 91 92  1  0
 92 93  1  0
 93 94  1  0
 94 95  2  0
 95 96  1  0
 96 97  1  0
 97 98  2  0
 92 99  1  0
 99100  2  0
 99101  1  0
101102  1  0
102103  1  0
103104  1  0
104105  1  0
104106  2  0
102107  1  0
107108  2  0
107109  1  0
109110  1  0
110111  1  0
111112  1  0
112113  1  0
112114  1  0
110115  1  0
115116  2  0
115117  1  0
117118  1  0
118119  1  0
119120  1  0
118121  1  0
121122  2  0
121123  1  0
123124  1  0
124125  1  0
125126  1  0
125127  1  0
124128  1  0
128129  2  0
128130  1  0
130131  1  0
131132  1  0
132133  1  0
133134  1  0
133135  1  0
131136  1  0
136137  2  0
136138  1  0
138139  1  0
139140  1  0
140141  1  0
141142  1  0
141143  1  0
139144  1  0
144145  2  0
144146  1  0
146147  1  0
147148  1  0
148149  1  0
149150  1  0
150151  2  0
150152  1  0
147153  1  0
153154  2  0
153155  1  0
156155  1  1
156157  1  0
157158  1  0
158159  1  0
159160  1  0
156161  1  0
156162  1  0
162163  2  0
162164  1  0
164165  1  0
165166  1  0
165167  1  0
167168  2  0
167169  1  0
169170  1  0
170171  1  0
171172  1  0
171173  1  0
173174  1  0
170175  1  0
175176  2  0
175177  1  0
177178  1  0
178179  1  0
179180  1  0
180181  1  0
181182  1  0
181183  2  0
178184  1  0
184185  2  0
184186  1  0
186187  1  0
187188  1  0
188189  1  0
189190  1  0
190191  1  0
187192  1  0
187193  1  1
193194  2  0
193195  1  0
195196  1  0
196197  1  0
197198  1  0
197199  1  0
196200  1  0
200201  2  0
200202  1  0
202203  1  0
203204  1  0
204205  1  0
203206  1  0
206207  2  0
206208  1  0
208209  1  0
209210  1  0
210211  1  0
211212  1  0
212213  1  0
213214  1  0
214215  2  3
214216  1  0
209217  1  0
217218  2  0
217219  1  0
219220  1  0
220221  1  0
221222  1  0
222223  1  0
223224  2  0
223225  1  0
220226  1  0
226227  2  0
226228  1  0
228229  1  0
229230  1  0
230231  1  0
231232  1  0
232233  1  0
232234  2  0
229235  1  0
235236  2  0
235237  1  0
  8  3  1  0
 98 94  1  0
 11  6  1  0
 18 13  2  0
160191  2  0
 22  9  1  0
 26 21  1  0
  2238  1  0
  4239  1  0
  5240  1  0
  8241  1  0
 15242  1  0
 17243  1  0
 18244  1  0
 19245  1  0
 23246  1  0
 24247  1  0
 26248  1  0
 27249  1  0
 29250  1  0
 30251  1  0
 30252  1  0
 31253  1  0
 31254  1  0
 34255  1  0
 35256  1  1
 36257  1  0
 36258  1  0
 37259  1  0
 40260  1  0
 41261  1  6
 42262  1  0
 42263  1  0
 43264  1  0
 43265  1  0
 49266  1  0
 50267  1  1
 51268  1  0
 51269  1  0
 52270  1  0
 52271  1  0
 58272  1  0
 59273  1  6
 60274  1  0
 60275  1  0
 61276  1  0
 62277  1  0
 62278  1  0
 62279  1  0
 63280  1  0
 63281  1  0
 63282  1  0
 66283  1  0
 67284  1  1
 68285  1  0
 68286  1  0
 69287  1  0
 69288  1  0
 69289  1  0
 72290  1  0
 73291  1  6
 74292  1  0
 74293  1  0
 74294  1  0
 77295  1  0
 78296  1  1
 79297  1  0
 79298  1  0
 80299  1  0
 80300  1  0
 86301  1  0
 87302  1  6
 88303  1  0
 88304  1  0
 88305  1  0
 91306  1  0
 92307  1  1
 93308  1  0
 93309  1  0
 95310  1  0
 96311  1  0
 97312  1  0
101313  1  0
102314  1  6
103315  1  0
103316  1  0
105317  1  0
105318  1  0
109319  1  0
110320  1  1
111321  1  0
111322  1  0
112323  1  0
113324  1  0
113325  1  0
113326  1  0
114327  1  0
114328  1  0
114329  1  0
117330  1  0
118331  1  6
119332  1  0
119333  1  0
120334  1  0
123335  1  0
124336  1  1
125337  1  1
126338  1  0
127339  1  0
127340  1  0
127341  1  0
130342  1  0
131343  1  6
132344  1  0
132345  1  0
133346  1  0
134347  1  0
134348  1  0
134349  1  0
135350  1  0
135351  1  0
135352  1  0
138353  1  0
139354  1  1
140355  1  0
140356  1  0
141357  1  0
142358  1  0
142359  1  0
142360  1  0
143361  1  0
143362  1  0
143363  1  0
146364  1  0
147365  1  6
148366  1  0
148367  1  0
149368  1  0
149369  1  0
155370  1  0
157371  1  0
157372  1  0
158373  1  0
158374  1  0
159375  1  0
159376  1  0
160377  1  0
161378  1  0
161379  1  0
161380  1  0
164381  1  0
165382  1  6
166383  1  0
166384  1  0
166385  1  0
169386  1  0
170387  1  6
171388  1  1
172389  1  0
172390  1  0
172391  1  0
173392  1  0
173393  1  0
174394  1  0
174395  1  0
174396  1  0
177397  1  0
178398  1  6
179399  1  0
179400  1  0
180401  1  0
180402  1  0
182403  1  0
182404  1  0
186405  1  0
188406  1  0
188407  1  0
189408  1  0
189409  1  0
190410  1  0
190411  1  0
191412  1  0
192413  1  0
192414  1  0
192415  1  0
195416  1  0
196417  1  1
197418  1  1
198419  1  0
199420  1  0
199421  1  0
199422  1  0
202423  1  0
203424  1  6
204425  1  0
204426  1  0
205427  1  0
205428  1  0
205429  1  0
208430  1  0
209431  1  1
210432  1  0
210433  1  0
211434  1  0
211435  1  0
212436  1  0
212437  1  0
213438  1  0
215439  1  0
215440  1  0
216441  1  0
216442  1  0
219443  1  0
220444  1  6
221445  1  0
221446  1  0
222447  1  0
222448  1  0
228449  1  0
229450  1  1
230451  1  0
230452  1  0
231453  1  0
231454  1  0
233455  1  0
233456  1  0
M  CHG  7  46  -1  55  -1  83  -1 152  -1 215   1 225  -1 237  -1
M  END
