
     RDKit          2D

437443  0  0  0  0  0  0  0  0999 V2000
   16.6378  -14.6598    0.0000 C   0  0  0  0  0  0  0  0  0  0  0  0
   17.2191  -16.0426    0.0000 N   0  0  0  0  0  0  0  0  0  0  0  0
   16.3123  -17.2374    0.0000 C   0  0  0  0  0  0  0  0  0  0  0  0
   14.8241  -17.0495    0.0000 C   0  0  0  0  0  0  0  0  0  0  0  0
   13.9173  -18.2443    0.0000 C   0  0  0  0  0  0  0  0  0  0  0  0
   14.4986  -19.6271    0.0000 C   0  0  0  0  0  0  0  0  0  0  0  0
   15.9868  -19.8150    0.0000 C   0  0  0  0  0  0  0  0  0  0  0  0
   16.8936  -18.6202    0.0000 C   0  0  0  0  0  0  0  0  0  0  0  0
   16.2680  -21.2884    0.0000 C   0  0  0  0  0  0  0  0  0  0  0  0
   14.9535  -22.0111    0.0000 O   0  0  0  0  0  0  0  0  0  0  0  0
   13.8600  -20.9844    0.0000 C   0  0  0  0  0  0  0  0  0  0  0  0
   12.3866  -21.2655    0.0000 O   0  0  0  0  0  0  0  0  0  0  0  0
   16.3936  -22.7832    0.0000 C   0  0  0  0  0  0  0  0  0  0  0  0
   17.7508  -23.4218    0.0000 C   0  0  0  0  0  0  0  0  0  0  0  0
   17.8764  -24.9165    0.0000 C   0  0  0  0  0  0  0  0  0  0  0  0
   16.6448  -25.7726    0.0000 C   0  0  0  0  0  0  0  0  0  0  0  0
   15.2875  -25.1340    0.0000 C   0  0  0  0  0  0  0  0  0  0  0  0
   15.1619  -23.6393    0.0000 C   0  0  0  0  0  0  0  0  0  0  0  0
   16.7704  -27.2674    0.0000 O   0  0  0  0  0  0  0  0  0  0  0  0
   18.9825  -22.5656    0.0000 O   0  0  0  0  0  0  0  0  0  0  0  0
   18.8569  -21.0709    0.0000 C   0  0  0  0  0  0  0  0  0  0  0  0
   17.4996  -20.4323    0.0000 C   0  0  0  0  0  0  0  0  0  0  0  0
   18.0074  -19.2356    0.0000 C   0  0  0  0  0  0  0  0  0  0  0  0
   18.6643  -18.7790    0.0000 C   0  0  0  0  0  0  0  0  0  0  0  0
   19.3882  -19.1195    0.0000 C   0  0  0  0  0  0  0  0  0  0  0  0
   19.4552  -19.9167    0.0000 C   0  0  0  0  0  0  0  0  0  0  0  0
   21.1947  -17.8639    0.0000 O   0  0  0  0  0  0  0  0  0  0  0  0
   15.1496  -14.4719    0.0000 S   0  0  0  0  0  0  0  0  0  0  0  0
   17.5446  -13.4650    0.0000 N   0  0  0  0  0  0  0  0  0  0  0  0
   16.9632  -12.0822    0.0000 C   0  0  0  0  0  0  0  0  0  0  0  0
   17.8701  -10.8873    0.0000 C   0  0  0  0  0  0  0  0  0  0  0  0
   17.2887   -9.5046    0.0000 C   0  0  0  0  0  0  0  0  0  0  0  0
   16.4972   -9.5991    0.0000 O   0  0  0  0  0  0  0  0  0  0  0  0
   18.1955   -8.3097    0.0000 N   0  0  0  0  0  0  0  0  0  0  0  0
   17.6142   -6.9270    0.0000 C   0  0  0  0  0  0  0  0  0  0  0  0
   16.3534   -7.7396    0.0000 C   0  0  0  0  0  0  0  0  0  0  0  0
   16.4268   -9.2378    0.0000 C   0  0  0  0  0  0  0  0  0  0  0  0
   15.1659  -10.0505    0.0000 C   0  0  0  0  0  0  0  0  0  0  0  0
   17.0081  -10.6206    0.0000 C   0  0  0  0  0  0  0  0  0  0  0  0
   17.5408   -5.4288    0.0000 C   0  0  0  0  0  0  0  0  0  0  0  0
   16.0496   -5.2670    0.0000 O   0  0  0  0  0  0  0  0  0  0  0  0
   18.8016   -4.6161    0.0000 N   0  0  0  0  0  0  0  0  0  0  0  0
   18.7283   -3.1179    0.0000 C   0  0  0  0  0  0  0  0  0  0  0  0
   17.3928   -3.8010    0.0000 C   0  0  0  0  0  0  0  0  0  0  0  0
   15.9154   -4.0601    0.0000 C   0  0  0  0  0  0  0  0  0  0  0  0
   14.4272   -3.8722    0.0000 C   0  0  0  0  0  0  0  0  0  0  0  0
   13.0605   -3.2539    0.0000 C   0  0  0  0  0  0  0  0  0  0  0  0
   20.1241   -3.6673    0.0000 C   0  0  0  0  0  0  0  0  0  0  0  0
   19.8031   -2.0716    0.0000 C   0  0  0  0  0  0  0  0  0  0  0  0
   20.9979   -2.9784    0.0000 O   0  0  0  0  0  0  0  0  0  0  0  0
   20.5217   -0.7549    0.0000 N   0  0  0  0  0  0  0  0  0  0  0  0
   20.8203    0.7150    0.0000 C   0  0  0  0  0  0  0  0  0  0  0  0
   22.1200    1.4638    0.0000 C   0  0  0  0  0  0  0  0  0  0  0  0
   23.3171    0.5599    0.0000 C   0  0  0  0  0  0  0  0  0  0  0  0
   23.0853    2.6120    0.0000 C   0  0  0  0  0  0  0  0  0  0  0  0
   24.5623    2.3501    0.0000 C   0  0  0  0  0  0  0  0  0  0  0  0
   20.6723    2.2077    0.0000 C   0  0  0  0  0  0  0  0  0  0  0  0
   22.0705    2.7510    0.0000 O   0  0  0  0  0  0  0  0  0  0  0  0
   20.0910    3.5905    0.0000 N   0  0  0  0  0  0  0  0  0  0  0  0
   19.1279    4.7405    0.0000 C   0  0  0  0  0  0  0  0  0  0  0  0
   19.3529    6.2235    0.0000 C   0  0  0  0  0  0  0  0  0  0  0  0
   20.7497    6.7702    0.0000 C   0  0  0  0  0  0  0  0  0  0  0  0
   20.9746    8.2532    0.0000 C   0  0  0  0  0  0  0  0  0  0  0  0
   22.2492    6.8062    0.0000 C   0  0  0  0  0  0  0  0  0  0  0  0
   17.8686    5.5555    0.0000 C   0  0  0  0  0  0  0  0  0  0  0  0
   18.4868    6.9221    0.0000 O   0  0  0  0  0  0  0  0  0  0  0  0
   16.4251    5.9631    0.0000 N   0  0  0  0  0  0  0  0  0  0  0  0
   14.9255    5.9271    0.0000 C   0  0  0  0  0  0  0  0  0  0  0  0
   13.9063    7.0276    0.0000 C   0  0  0  0  0  0  0  0  0  0  0  0
   14.3498    8.4606    0.0000 C   0  0  0  0  0  0  0  0  0  0  0  0
   13.3305    9.5611    0.0000 C   0  0  0  0  0  0  0  0  0  0  0  0
   13.7740   10.9941    0.0000 N   0  0  0  0  0  0  0  0  0  0  0  0
   11.8309    9.5925    0.0000 O   0  0  0  0  0  0  0  0  0  0  0  0
   13.5032    5.4507    0.0000 C   0  0  0  0  0  0  0  0  0  0  0  0
   13.3442    6.9423    0.0000 O   0  0  0  0  0  0  0  0  0  0  0  0
   12.2844    4.5762    0.0000 N   0  0  0  0  0  0  0  0  0  0  0  0
   11.3776    3.3814    0.0000 C   0  0  0  0  0  0  0  0  0  0  0  0
   10.8632    1.9723    0.0000 C   0  0  0  0  0  0  0  0  0  0  0  0
   10.7871    0.4743    0.0000 C   0  0  0  0  0  0  0  0  0  0  0  0
   11.1558   -0.9797    0.0000 C   0  0  0  0  0  0  0  0  0  0  0  0
   11.9368   -2.2604    0.0000 C   0  0  0  0  0  0  0  0  0  0  0  0
   10.5371    2.1390    0.0000 C   0  0  0  0  0  0  0  0  0  0  0  0
    9.4766    1.0781    0.0000 C   0  0  0  0  0  0  0  0  0  0  0  0
    8.2346    0.2371    0.0000 C   0  0  0  0  0  0  0  0  0  0  0  0
    6.8558   -0.3536    0.0000 C   0  0  0  0  0  0  0  0  0  0  0  0
   11.9678    4.7604    0.0000 C   0  0  0  0  0  0  0  0  0  0  0  0
   13.3967    4.3039    0.0000 O   0  0  0  0  0  0  0  0  0  0  0  0
   12.2864    6.2262    0.0000 N   0  0  0  0  0  0  0  0  0  0  0  0
   12.3218    7.7258    0.0000 C   0  0  0  0  0  0  0  0  0  0  0  0
   13.5365    8.6057    0.0000 C   0  0  0  0  0  0  0  0  0  0  0  0
   12.0728    9.2049    0.0000 C   0  0  0  0  0  0  0  0  0  0  0  0
   13.2860   10.0870    0.0000 O   0  0  0  0  0  0  0  0  0  0  0  0
   11.5483   10.6103    0.0000 N   0  0  0  0  0  0  0  0  0  0  0  0
   10.7673   11.8909    0.0000 C   0  0  0  0  0  0  0  0  0  0  0  0
   11.3135   13.2880    0.0000 C   0  0  0  0  0  0  0  0  0  0  0  0
   12.7964   13.5135    0.0000 C   0  0  0  0  0  0  0  0  0  0  0  0
    9.7581   13.0007    0.0000 C   0  0  0  0  0  0  0  0  0  0  0  0
   10.6241   14.2255    0.0000 O   0  0  0  0  0  0  0  0  0  0  0  0
    8.5571   13.8994    0.0000 N   0  0  0  0  0  0  0  0  0  0  0  0
    7.2078   14.5545    0.0000 C   0  0  0  0  0  0  0  0  0  0  0  0
    6.9120   16.0251    0.0000 C   0  0  0  0  0  0  0  0  0  0  0  0
    8.0376   17.0165    0.0000 C   0  0  0  0  0  0  0  0  0  0  0  0
    7.7417   18.4871    0.0000 C   0  0  0  0  0  0  0  0  0  0  0  0
    8.8673   19.4785    0.0000 N   0  0  0  0  0  0  0  0  0  0  0  0
    6.3203   18.9661    0.0000 O   0  0  0  0  0  0  0  0  0  0  0  0
    5.7588   14.9425    0.0000 C   0  0  0  0  0  0  0  0  0  0  0  0
    5.8251   16.4410    0.0000 O   0  0  0  0  0  0  0  0  0  0  0  0
    4.2626   15.0492    0.0000 N   0  0  0  0  0  0  0  0  0  0  0  0
    2.7733   14.8708    0.0000 C   0  0  0  0  0  0  0  0  0  0  0  0
    1.7294   15.9480    0.0000 C   0  0  0  0  0  0  0  0  0  0  0  0
    2.1403   17.3906    0.0000 C   0  0  0  0  0  0  0  0  0  0  0  0
    1.3446   14.4138    0.0000 C   0  0  0  0  0  0  0  0  0  0  0  0
    0.5902   15.7103    0.0000 O   0  0  0  0  0  0  0  0  0  0  0  0
    0.0282   13.6947    0.0000 N   0  0  0  0  0  0  0  0  0  0  0  0
   -1.1283   12.7394    0.0000 C   0  0  0  0  0  0  0  0  0  0  0  0
   -2.5888   13.0812    0.0000 C   0  0  0  0  0  0  0  0  0  0  0  0
   -2.8449   14.5592    0.0000 C   0  0  0  0  0  0  0  0  0  0  0  0
   -4.0782   12.9029    0.0000 C   0  0  0  0  0  0  0  0  0  0  0  0
   -4.9773   14.1035    0.0000 C   0  0  0  0  0  0  0  0  0  0  0  0
   -2.0831   11.5826    0.0000 C   0  0  0  0  0  0  0  0  0  0  0  0
   -3.3255   12.4231    0.0000 O   0  0  0  0  0  0  0  0  0  0  0  0
   -2.8017   10.2659    0.0000 N   0  0  0  0  0  0  0  0  0  0  0  0
   -3.2582    8.8371    0.0000 C   0  0  0  0  0  0  0  0  0  0  0  0
   -4.6716    8.3349    0.0000 C   0  0  0  0  0  0  0  0  0  0  0  0
   -5.8132    9.3080    0.0000 C   0  0  0  0  0  0  0  0  0  0  0  0
   -7.2267    8.8059    0.0000 C   0  0  0  0  0  0  0  0  0  0  0  0
   -6.5531   10.6128    0.0000 C   0  0  0  0  0  0  0  0  0  0  0  0
   -3.4360    7.3476    0.0000 C   0  0  0  0  0  0  0  0  0  0  0  0
   -4.9287    7.2000    0.0000 O   0  0  0  0  0  0  0  0  0  0  0  0
   -3.3287    5.8515    0.0000 N   0  0  0  0  0  0  0  0  0  0  0  0
   -2.9402    4.4027    0.0000 C   0  0  0  0  0  0  0  0  0  0  0  0
   -2.2845    3.0535    0.0000 C   0  0  0  0  0  0  0  0  0  0  0  0
   -1.3853    1.8529    0.0000 C   0  0  0  0  0  0  0  0  0  0  0  0
   -0.2752    0.8441    0.0000 C   0  0  0  0  0  0  0  0  0  0  0  0
    1.0057    0.0637    0.0000 C   0  0  0  0  0  0  0  0  0  0  0  0
    2.4113   -0.4602    0.0000 C   0  0  0  0  0  0  0  0  0  0  0  0
    3.8906   -0.7087    0.0000 C   0  0  0  0  0  0  0  0  0  0  0  0
    5.3901   -0.6727    0.0000 C   0  0  0  0  0  0  0  0  0  0  0  0
   -4.4108    4.6979    0.0000 C   0  0  0  0  0  0  0  0  0  0  0  0
   -3.8578    3.2161    0.0000 C   0  0  0  0  0  0  0  0  0  0  0  0
   -3.6418    1.7317    0.0000 O   0  0  0  0  0  0  0  0  0  0  0  0
   -5.3442    3.4175    0.0000 N   0  0  0  0  0  0  0  0  0  0  0  0
   -6.2618    2.2309    0.0000 C   0  0  0  0  0  0  0  0  0  0  0  0
   -6.7183    0.8020    0.0000 C   0  0  0  0  0  0  0  0  0  0  0  0
   -8.1840    0.4829    0.0000 C   0  0  0  0  0  0  0  0  0  0  0  0
   -8.6404   -0.9459    0.0000 C   0  0  0  0  0  0  0  0  0  0  0  0
   -9.6704    0.6843    0.0000 C   0  0  0  0  0  0  0  0  0  0  0  0
   -7.7483    2.4323    0.0000 C   0  0  0  0  0  0  0  0  0  0  0  0
   -8.3170    3.8203    0.0000 O   0  0  0  0  0  0  0  0  0  0  0  0
   -8.6659    1.2457    0.0000 N   0  0  0  0  0  0  0  0  0  0  0  0
  -10.1523    1.4471    0.0000 C   0  0  0  0  0  0  0  0  0  0  0  0
  -11.4802    2.1448    0.0000 C   0  0  0  0  0  0  0  0  0  0  0  0
  -11.5400    3.6436    0.0000 C   0  0  0  0  0  0  0  0  0  0  0  0
  -12.8679    4.3412    0.0000 C   0  0  0  0  0  0  0  0  0  0  0  0
  -12.9276    5.8400    0.0000 O   0  0  0  0  0  0  0  0  0  0  0  0
  -14.1360    3.5401    0.0000 O   0  0  0  0  0  0  0  0  0  0  0  0
  -11.0699    0.2606    0.0000 C   0  0  0  0  0  0  0  0  0  0  0  0
  -10.6746   -1.1864    0.0000 O   0  0  0  0  0  0  0  0  0  0  0  0
  -12.5563    0.4620    0.0000 N   0  0  0  0  0  0  0  0  0  0  0  0
  -13.4740   -0.7246    0.0000 C   0  0  0  0  0  0  0  0  0  0  0  0
  -13.9304   -2.1535    0.0000 C   0  0  0  0  0  0  0  0  0  0  0  0
  -15.3961   -2.4726    0.0000 C   0  0  0  0  0  0  0  0  0  0  0  0
  -15.8525   -3.9015    0.0000 C   0  0  0  0  0  0  0  0  0  0  0  0
  -17.2684   -4.3969    0.0000 N   0  0  0  0  0  0  0  0  0  0  0  0
  -14.8433   -5.0112    0.0000 O   0  0  0  0  0  0  0  0  0  0  0  0
  -14.9604   -0.5232    0.0000 C   0  0  0  0  0  0  0  0  0  0  0  0
  -15.5292    0.8648    0.0000 O   0  0  0  0  0  0  0  0  0  0  0  0
  -15.8780   -1.7098    0.0000 N   0  0  0  0  0  0  0  0  0  0  0  0
  -17.3644   -1.5084    0.0000 C   0  0  0  0  0  0  0  0  0  0  0  0
  -18.6923   -0.8107    0.0000 C   0  0  0  0  0  0  0  0  0  0  0  0
  -18.7521    0.6881    0.0000 C   0  0  0  0  0  0  0  0  0  0  0  0
  -20.0800    1.3857    0.0000 C   0  0  0  0  0  0  0  0  0  0  0  0
  -20.1398    2.8845    0.0000 N   0  0  0  0  0  0  0  0  0  0  0  0
  -21.3481    0.5845    0.0000 O   0  0  0  0  0  0  0  0  0  0  0  0
  -18.2821   -2.6950    0.0000 C   0  0  0  0  0  0  0  0  0  0  0  0
  -17.8867   -4.1419    0.0000 O   0  0  0  0  0  0  0  0  0  0  0  0
  -19.7685   -2.4936    0.0000 N   0  0  0  0  0  0  0  0  0  0  0  0
  -20.6861   -3.6801    0.0000 C   0  0  0  0  0  0  0  0  0  0  0  0
  -21.1426   -5.1090    0.0000 C   0  0  0  0  0  0  0  0  0  0  0  0
  -22.5584   -5.6044    0.0000 C   0  0  0  0  0  0  0  0  0  0  0  0
  -22.1725   -3.4787    0.0000 C   0  0  0  0  0  0  0  0  0  0  0  0
  -22.7413   -2.0908    0.0000 O   0  0  0  0  0  0  0  0  0  0  0  0
  -23.0902   -4.6653    0.0000 N   0  0  0  0  0  0  0  0  0  0  0  0
  -24.5766   -4.4639    0.0000 C   0  0  0  0  0  0  0  0  0  0  0  0
  -25.9045   -3.7663    0.0000 C   0  0  0  0  0  0  0  0  0  0  0  0
  -25.9642   -2.2675    0.0000 C   0  0  0  0  0  0  0  0  0  0  0  0
  -27.2921   -1.5698    0.0000 C   0  0  0  0  0  0  0  0  0  0  0  0
  -27.3519   -0.0710    0.0000 N   0  0  0  0  0  0  0  0  0  0  0  0
  -28.6798    0.6266    0.0000 C   0  0  0  0  0  0  0  0  0  0  0  0
  -28.7396    2.1254    0.0000 N   0  0  0  0  0  0  0  0  0  0  0  0
  -29.9479   -0.1745    0.0000 N   0  0  0  0  0  0  0  0  0  0  0  0
  -25.4942   -5.6505    0.0000 C   0  0  0  0  0  0  0  0  0  0  0  0
  -24.9254   -7.0385    0.0000 O   0  0  0  0  0  0  0  0  0  0  0  0
  -26.9806   -5.4491    0.0000 N   0  0  0  0  0  0  0  0  0  0  0  0
  -27.8982   -6.6357    0.0000 C   0  0  0  0  0  0  0  0  0  0  0  0
  -28.3547   -8.0645    0.0000 C   0  0  0  0  0  0  0  0  0  0  0  0
  -29.8204   -8.3837    0.0000 C   0  0  0  0  0  0  0  0  0  0  0  0
  -30.2768   -9.8125    0.0000 C   0  0  0  0  0  0  0  0  0  0  0  0
  -31.6926  -10.3079    0.0000 O   0  0  0  0  0  0  0  0  0  0  0  0
  -29.2676  -10.9222    0.0000 O   0  0  0  0  0  0  0  0  0  0  0  0
  -29.3847   -6.4343    0.0000 C   0  0  0  0  0  0  0  0  0  0  0  0
  -29.9535   -5.0463    0.0000 O   0  0  0  0  0  0  0  0  0  0  0  0
  -30.3023   -7.6208    0.0000 N   0  0  0  0  0  0  0  0  0  0  0  0
  -31.7887   -7.4194    0.0000 C   0  0  0  0  0  0  0  0  0  0  0  0
  -33.1166   -6.7218    0.0000 C   0  0  0  0  0  0  0  0  0  0  0  0
  -33.1764   -5.2230    0.0000 C   0  0  0  0  0  0  0  0  0  0  0  0
  -34.5043   -4.5253    0.0000 C   0  0  0  0  0  0  0  0  0  0  0  0
  -34.5640   -3.0265    0.0000 N   0  0  0  0  0  0  0  0  0  0  0  0
  -35.8919   -2.3289    0.0000 C   0  0  0  0  0  0  0  0  0  0  0  0
  -35.9517   -0.8301    0.0000 N   0  0  0  0  0  0  0  0  0  0  0  0
  -37.1601   -3.1301    0.0000 N   0  0  0  0  0  0  0  0  0  0  0  0
  -32.7063   -8.6060    0.0000 C   0  0  0  0  0  0  0  0  0  0  0  0
  -34.2062   -8.5873    0.0000 O   0  0  0  0  0  0  0  0  0  0  0  0
  -32.3110  -10.0530    0.0000 O   0  0  0  0  0  0  0  0  0  0  0  0
   18.7191  -16.0477    0.0000 H   0  0  0  0  0  0  0  0  0  0  0  0
   14.2427  -15.6667    0.0000 H   0  0  0  0  0  0  0  0  0  0  0  0
   12.4291  -18.0564    0.0000 H   0  0  0  0  0  0  0  0  0  0  0  0
   18.3831  -18.4424    0.0000 H   0  0  0  0  0  0  0  0  0  0  0  0
   19.2337  -25.5551    0.0000 H   0  0  0  0  0  0  0  0  0  0  0  0
   14.0558  -25.9902    0.0000 H   0  0  0  0  0  0  0  0  0  0  0  0
   13.8046  -23.0007    0.0000 H   0  0  0  0  0  0  0  0  0  0  0  0
   15.5387  -28.1235    0.0000 H   0  0  0  0  0  0  0  0  0  0  0  0
   16.0168  -18.2990    0.0000 H   0  0  0  0  0  0  0  0  0  0  0  0
   18.6632  -16.5825    0.0000 H   0  0  0  0  0  0  0  0  0  0  0  0
   21.4459  -20.8533    0.0000 H   0  0  0  0  0  0  0  0  0  0  0  0
   22.5519  -18.5025    0.0000 H   0  0  0  0  0  0  0  0  0  0  0  0
   19.0328  -13.6529    0.0000 H   0  0  0  0  0  0  0  0  0  0  0  0
   15.7024  -12.8948    0.0000 H   0  0  0  0  0  0  0  0  0  0  0  0
   15.7080  -11.2610    0.0000 H   0  0  0  0  0  0  0  0  0  0  0  0
   19.0158  -11.8554    0.0000 H   0  0  0  0  0  0  0  0  0  0  0  0
   19.2205  -10.2345    0.0000 H   0  0  0  0  0  0  0  0  0  0  0  0
   19.6837   -8.4977    0.0000 H   0  0  0  0  0  0  0  0  0  0  0  0
   19.0769   -6.5946    0.0000 H   0  0  0  0  0  0  0  0  0  0  0  0
   14.8611   -7.8912    0.0000 H   0  0  0  0  0  0  0  0  0  0  0  0
   15.7720   -6.3569    0.0000 H   0  0  0  0  0  0  0  0  0  0  0  0
   17.9264   -9.2692    0.0000 H   0  0  0  0  0  0  0  0  0  0  0  0
   14.8746  -11.5219    0.0000 H   0  0  0  0  0  0  0  0  0  0  0  0
   13.7032  -10.3829    0.0000 H   0  0  0  0  0  0  0  0  0  0  0  0
   14.4204   -8.7489    0.0000 H   0  0  0  0  0  0  0  0  0  0  0  0
   16.1013  -11.8154    0.0000 H   0  0  0  0  0  0  0  0  0  0  0  0
   17.8856  -11.8371    0.0000 H   0  0  0  0  0  0  0  0  0  0  0  0
   18.1605   -9.6603    0.0000 H   0  0  0  0  0  0  0  0  0  0  0  0
   20.0423   -5.4592    0.0000 H   0  0  0  0  0  0  0  0  0  0  0  0
   18.3033   -4.9931    0.0000 H   0  0  0  0  0  0  0  0  0  0  0  0
   16.8470   -5.1981    0.0000 H   0  0  0  0  0  0  0  0  0  0  0  0
   16.0780   -5.5512    0.0000 H   0  0  0  0  0  0  0  0  0  0  0  0
   15.2938   -5.4252    0.0000 H   0  0  0  0  0  0  0  0  0  0  0  0
   14.6899   -5.3490    0.0000 H   0  0  0  0  0  0  0  0  0  0  0  0
   13.3016   -4.8636    0.0000 H   0  0  0  0  0  0  0  0  0  0  0  0
   12.2455   -4.5132    0.0000 H   0  0  0  0  0  0  0  0  0  0  0  0
   20.5254   -5.1126    0.0000 H   0  0  0  0  0  0  0  0  0  0  0  0
   21.6236   -3.7061    0.0000 H   0  0  0  0  0  0  0  0  0  0  0  0
   20.7695   -2.3132    0.0000 H   0  0  0  0  0  0  0  0  0  0  0  0
   21.9307   -1.2693    0.0000 H   0  0  0  0  0  0  0  0  0  0  0  0
   21.9214   -0.3035    0.0000 H   0  0  0  0  0  0  0  0  0  0  0  0
   21.4638    2.8127    0.0000 H   0  0  0  0  0  0  0  0  0  0  0  0
   24.8175    1.2839    0.0000 H   0  0  0  0  0  0  0  0  0  0  0  0
   24.3815   -0.4374    0.0000 H   0  0  0  0  0  0  0  0  0  0  0  0
   22.6003   -0.5447    0.0000 H   0  0  0  0  0  0  0  0  0  0  0  0
   23.5997    4.0210    0.0000 H   0  0  0  0  0  0  0  0  0  0  0  0
   21.8882    3.5159    0.0000 H   0  0  0  0  0  0  0  0  0  0  0  0
   25.5275    3.4983    0.0000 H   0  0  0  0  0  0  0  0  0  0  0  0
   25.8606    1.5989    0.0000 H   0  0  0  0  0  0  0  0  0  0  0  0
   24.4041    0.8585    0.0000 H   0  0  0  0  0  0  0  0  0  0  0  0
   21.3717    4.3714    0.0000 H   0  0  0  0  0  0  0  0  0  0  0  0
   20.6108    4.9663    0.0000 H   0  0  0  0  0  0  0  0  0  0  0  0
   18.8800    7.6470    0.0000 H   0  0  0  0  0  0  0  0  0  0  0  0
   17.8891    6.5514    0.0000 H   0  0  0  0  0  0  0  0  0  0  0  0
   21.2226    5.3467    0.0000 H   0  0  0  0  0  0  0  0  0  0  0  0
   22.2944    8.9661    0.0000 H   0  0  0  0  0  0  0  0  0  0  0  0
   20.6788    9.7238    0.0000 H   0  0  0  0  0  0  0  0  0  0  0  0
   19.4819    8.4003    0.0000 H   0  0  0  0  0  0  0  0  0  0  0  0
   23.1230    8.0254    0.0000 H   0  0  0  0  0  0  0  0  0  0  0  0
   23.6707    6.3271    0.0000 H   0  0  0  0  0  0  0  0  0  0  0  0
   22.0243    5.3231    0.0000 H   0  0  0  0  0  0  0  0  0  0  0  0
   16.6130    7.4513    0.0000 H   0  0  0  0  0  0  0  0  0  0  0  0
   15.6735    7.2273    0.0000 H   0  0  0  0  0  0  0  0  0  0  0  0
   12.7777    8.0157    0.0000 H   0  0  0  0  0  0  0  0  0  0  0  0
   12.6314    6.2372    0.0000 H   0  0  0  0  0  0  0  0  0  0  0  0
   15.3955    9.5360    0.0000 H   0  0  0  0  0  0  0  0  0  0  0  0
   15.7575    7.9428    0.0000 H   0  0  0  0  0  0  0  0  0  0  0  0
   12.8965   12.2106    0.0000 H   0  0  0  0  0  0  0  0  0  0  0  0
   15.2367   11.3265    0.0000 H   0  0  0  0  0  0  0  0  0  0  0  0
   11.2381    5.6510    0.0000 H   0  0  0  0  0  0  0  0  0  0  0  0
    9.5435    1.2595    0.0000 H   0  0  0  0  0  0  0  0  0  0  0  0
    9.7904    3.0207    0.0000 H   0  0  0  0  0  0  0  0  0  0  0  0
    9.7361   -0.5959    0.0000 H   0  0  0  0  0  0  0  0  0  0  0  0
    9.2958    0.6361    0.0000 H   0  0  0  0  0  0  0  0  0  0  0  0
   10.3097   -2.2182    0.0000 H   0  0  0  0  0  0  0  0  0  0  0  0
    9.6831   -1.2646    0.0000 H   0  0  0  0  0  0  0  0  0  0  0  0
   10.7868   -3.2235    0.0000 H   0  0  0  0  0  0  0  0  0  0  0  0
   12.0235    1.9376    0.0000 H   0  0  0  0  0  0  0  0  0  0  0  0
   10.8399    0.6699    0.0000 H   0  0  0  0  0  0  0  0  0  0  0  0
   10.6319    0.1214    0.0000 H   0  0  0  0  0  0  0  0  0  0  0  0
    9.4959   -0.4217    0.0000 H   0  0  0  0  0  0  0  0  0  0  0  0
    9.1879   -0.9209    0.0000 H   0  0  0  0  0  0  0  0  0  0  0  0
    8.1516   -1.2606    0.0000 H   0  0  0  0  0  0  0  0  0  0  0  0
    7.3128   -1.7823    0.0000 H   0  0  0  0  0  0  0  0  0  0  0  0
   13.7864    6.2313    0.0000 H   0  0  0  0  0  0  0  0  0  0  0  0
   13.7790    7.3702    0.0000 H   0  0  0  0  0  0  0  0  0  0  0  0
   13.2011   10.0678    0.0000 H   0  0  0  0  0  0  0  0  0  0  0  0
   14.9181    9.1900    0.0000 H   0  0  0  0  0  0  0  0  0  0  0  0
   14.0229    7.1868    0.0000 H   0  0  0  0  0  0  0  0  0  0  0  0
   12.8974   11.2659    0.0000 H   0  0  0  0  0  0  0  0  0  0  0  0
   12.2616   12.0220    0.0000 H   0  0  0  0  0  0  0  0  0  0  0  0
   11.5314   14.7721    0.0000 H   0  0  0  0  0  0  0  0  0  0  0  0
    9.9580   13.9303    0.0000 H   0  0  0  0  0  0  0  0  0  0  0  0
   13.3426   14.9105    0.0000 H   0  0  0  0  0  0  0  0  0  0  0  0
   14.2671   13.2182    0.0000 H   0  0  0  0  0  0  0  0  0  0  0  0
   12.9441   12.0208    0.0000 H   0  0  0  0  0  0  0  0  0  0  0  0
    9.4879   15.0756    0.0000 H   0  0  0  0  0  0  0  0  0  0  0  0
    8.4971   15.3212    0.0000 H   0  0  0  0  0  0  0  0  0  0  0  0
    6.2929   17.3914    0.0000 H   0  0  0  0  0  0  0  0  0  0  0  0
    5.4244   15.8326    0.0000 H   0  0  0  0  0  0  0  0  0  0  0  0
    9.4344   17.5632    0.0000 H   0  0  0  0  0  0  0  0  0  0  0  0
    9.1052   15.9629    0.0000 H   0  0  0  0  0  0  0  0  0  0  0  0
    8.5715   20.9491    0.0000 H   0  0  0  0  0  0  0  0  0  0  0  0
   10.2888   18.9995    0.0000 H   0  0  0  0  0  0  0  0  0  0  0  0
    4.4097   16.5420    0.0000 H   0  0  0  0  0  0  0  0  0  0  0  0
    3.4434   16.2128    0.0000 H   0  0  0  0  0  0  0  0  0  0  0  0
    0.4699   16.7627    0.0000 H   0  0  0  0  0  0  0  0  0  0  0  0
    0.5820   14.9818    0.0000 H   0  0  0  0  0  0  0  0  0  0  0  0
    1.0963   18.4678    0.0000 H   0  0  0  0  0  0  0  0  0  0  0  0
    3.0198   18.6057    0.0000 H   0  0  0  0  0  0  0  0  0  0  0  0
    3.6080   17.0814    0.0000 H   0  0  0  0  0  0  0  0  0  0  0  0
   -0.6551   15.0300    0.0000 H   0  0  0  0  0  0  0  0  0  0  0  0
   -1.2901   14.2307    0.0000 H   0  0  0  0  0  0  0  0  0  0  0  0
   -3.0317   11.6481    0.0000 H   0  0  0  0  0  0  0  0  0  0  0  0
   -4.4349   15.0563    0.0000 H   0  0  0  0  0  0  0  0  0  0  0  0
   -2.9401   16.0147    0.0000 H   0  0  0  0  0  0  0  0  0  0  0  0
   -1.6212   15.0504    0.0000 H   0  0  0  0  0  0  0  0  0  0  0  0
   -5.4167   12.2259    0.0000 H   0  0  0  0  0  0  0  0  0  0  0  0
   -3.8222   11.4249    0.0000 H   0  0  0  0  0  0  0  0  0  0  0  0
   -6.4667   13.9251    0.0000 H   0  0  0  0  0  0  0  0  0  0  0  0
   -5.4116   15.5392    0.0000 H   0  0  0  0  0  0  0  0  0  0  0  0
   -3.8424   15.0843    0.0000 H   0  0  0  0  0  0  0  0  0  0  0  0
   -4.1807   10.8561    0.0000 H   0  0  0  0  0  0  0  0  0  0  0  0
   -4.2005   10.0041    0.0000 H   0  0  0  0  0  0  0  0  0  0  0  0
   -5.8281    7.3797    0.0000 H   0  0  0  0  0  0  0  0  0  0  0  0
   -4.2694    6.8899    0.0000 H   0  0  0  0  0  0  0  0  0  0  0  0
   -4.9222   10.5147    0.0000 H   0  0  0  0  0  0  0  0  0  0  0  0
   -8.4784    9.6325    0.0000 H   0  0  0  0  0  0  0  0  0  0  0  0
   -8.3832    7.8506    0.0000 H   0  0  0  0  0  0  0  0  0  0  0  0
   -6.6513    7.4206    0.0000 H   0  0  0  0  0  0  0  0  0  0  0  0
   -8.0405   10.8072    0.0000 H   0  0  0  0  0  0  0  0  0  0  0  0
   -6.8022   12.0920    0.0000 H   0  0  0  0  0  0  0  0  0  0  0  0
   -5.1397   11.1149    0.0000 H   0  0  0  0  0  0  0  0  0  0  0  0
   -4.8272    5.7846    0.0000 H   0  0  0  0  0  0  0  0  0  0  0  0
   -2.9610    1.7148    0.0000 H   0  0  0  0  0  0  0  0  0  0  0  0
   -3.7427    2.7019    0.0000 H   0  0  0  0  0  0  0  0  0  0  0  0
   -1.9690    0.4711    0.0000 H   0  0  0  0  0  0  0  0  0  0  0  0
   -2.7506    1.2316    0.0000 H   0  0  0  0  0  0  0  0  0  0  0  0
   -0.5868   -0.6231    0.0000 H   0  0  0  0  0  0  0  0  0  0  0  0
   -1.5950    0.1312    0.0000 H   0  0  0  0  0  0  0  0  0  0  0  0
    0.9774   -1.4361    0.0000 H   0  0  0  0  0  0  0  0  0  0  0  0
   -0.1553   -0.8861    0.0000 H   0  0  0  0  0  0  0  0  0  0  0  0
    2.6673   -1.9382    0.0000 H   0  0  0  0  0  0  0  0  0  0  0  0
    1.4510   -1.6126    0.0000 H   0  0  0  0  0  0  0  0  0  0  0  0
    4.5887   -2.0363    0.0000 H   0  0  0  0  0  0  0  0  0  0  0  0
    3.1657   -2.0219    0.0000 H   0  0  0  0  0  0  0  0  0  0  0  0
    5.5685   -2.1621    0.0000 H   0  0  0  0  0  0  0  0  0  0  0  0
   -5.6449    3.8452    0.0000 H   0  0  0  0  0  0  0  0  0  0  0  0
   -5.6918    5.4784    0.0000 H   0  0  0  0  0  0  0  0  0  0  0  0
   -4.2189    6.1856    0.0000 H   0  0  0  0  0  0  0  0  0  0  0  0
   -6.0780    4.7258    0.0000 H   0  0  0  0  0  0  0  0  0  0  0  0
   -4.9339    1.5333    0.0000 H   0  0  0  0  0  0  0  0  0  0  0  0
   -6.4763   -0.6783    0.0000 H   0  0  0  0  0  0  0  0  0  0  0  0
   -5.2319    0.6006    0.0000 H   0  0  0  0  0  0  0  0  0  0  0  0
   -8.9405    1.7781    0.0000 H   0  0  0  0  0  0  0  0  0  0  0  0
   -9.9853   -1.6102    0.0000 H   0  0  0  0  0  0  0  0  0  0  0  0
   -8.5806   -2.4448    0.0000 H   0  0  0  0  0  0  0  0  0  0  0  0
   -7.1896   -1.3270    0.0000 H   0  0  0  0  0  0  0  0  0  0  0  0
  -10.5581    1.8934    0.0000 H   0  0  0  0  0  0  0  0  0  0  0  0
  -10.9242   -0.1390    0.0000 H   0  0  0  0  0  0  0  0  0  0  0  0
   -9.7937   -0.8106    0.0000 H   0  0  0  0  0  0  0  0  0  0  0  0
   -8.4499   -0.2386    0.0000 H   0  0  0  0  0  0  0  0  0  0  0  0
   -9.5251    2.8097    0.0000 H   0  0  0  0  0  0  0  0  0  0  0  0
  -12.9310    2.5259    0.0000 H   0  0  0  0  0  0  0  0  0  0  0  0
  -12.4185    0.9745    0.0000 H   0  0  0  0  0  0  0  0  0  0  0  0
  -11.0835    5.0724    0.0000 H   0  0  0  0  0  0  0  0  0  0  0  0
  -10.0401    3.6249    0.0000 H   0  0  0  0  0  0  0  0  0  0  0  0
  -15.4639    4.2377    0.0000 H   0  0  0  0  0  0  0  0  0  0  0  0
  -13.2901    1.7703    0.0000 H   0  0  0  0  0  0  0  0  0  0  0  0
  -12.1461   -1.4223    0.0000 H   0  0  0  0  0  0  0  0  0  0  0  0
  -13.8707   -3.6523    0.0000 H   0  0  0  0  0  0  0  0  0  0  0  0
  -12.4440   -2.3549    0.0000 H   0  0  0  0  0  0  0  0  0  0  0  0
  -16.8825   -2.2712    0.0000 H   0  0  0  0  0  0  0  0  0  0  0  0
  -16.1527   -1.1774    0.0000 H   0  0  0  0  0  0  0  0  0  0  0  0
  -17.7747   -5.6495    0.0000 H   0  0  0  0  0  0  0  0  0  0  0  0
  -18.6071   -3.4053    0.0000 H   0  0  0  0  0  0  0  0  0  0  0  0
  -15.6620   -3.1942    0.0000 H   0  0  0  0  0  0  0  0  0  0  0  0
  -16.7372   -0.1458    0.0000 H   0  0  0  0  0  0  0  0  0  0  0  0
  -20.1431   -0.4297    0.0000 H   0  0  0  0  0  0  0  0  0  0  0  0
  -19.4810   -2.0867    0.0000 H   0  0  0  0  0  0  0  0  0  0  0  0
  -18.2956    2.1169    0.0000 H   0  0  0  0  0  0  0  0  0  0  0  0
  -17.2522    0.6693    0.0000 H   0  0  0  0  0  0  0  0  0  0  0  0
  -21.4677    3.5821    0.0000 H   0  0  0  0  0  0  0  0  0  0  0  0
  -18.8716    3.6857    0.0000 H   0  0  0  0  0  0  0  0  0  0  0  0
  -20.5022   -1.1853    0.0000 H   0  0  0  0  0  0  0  0  0  0  0  0
  -19.3582   -4.3778    0.0000 H   0  0  0  0  0  0  0  0  0  0  0  0
  -21.0828   -6.6078    0.0000 H   0  0  0  0  0  0  0  0  0  0  0  0
  -19.6561   -5.3104    0.0000 H   0  0  0  0  0  0  0  0  0  0  0  0
  -23.0647   -6.8570    0.0000 H   0  0  0  0  0  0  0  0  0  0  0  0
  -24.0946   -5.2267    0.0000 H   0  0  0  0  0  0  0  0  0  0  0  0
  -23.3648   -4.1329    0.0000 H   0  0  0  0  0  0  0  0  0  0  0  0
  -22.6948   -6.1123    0.0000 H   0  0  0  0  0  0  0  0  0  0  0  0
  -23.9493   -3.1013    0.0000 H   0  0  0  0  0  0  0  0  0  0  0  0
  -27.3909   -3.5649    0.0000 H   0  0  0  0  0  0  0  0  0  0  0  0
  -26.6931   -5.0422    0.0000 H   0  0  0  0  0  0  0  0  0  0  0  0
  -25.5078   -0.8386    0.0000 H   0  0  0  0  0  0  0  0  0  0  0  0
  -24.4644   -2.2862    0.0000 H   0  0  0  0  0  0  0  0  0  0  0  0
  -28.7785   -1.3684    0.0000 H   0  0  0  0  0  0  0  0  0  0  0  0
  -27.9194   -2.9324    0.0000 H   0  0  0  0  0  0  0  0  0  0  0  0
  -26.0838    0.7302    0.0000 H   0  0  0  0  0  0  0  0  0  0  0  0
  -30.0675    2.8231    0.0000 H   0  0  0  0  0  0  0  0  0  0  0  0
  -31.2758    0.5231    0.0000 H   0  0  0  0  0  0  0  0  0  0  0  0
  -29.8881   -1.6734    0.0000 H   0  0  0  0  0  0  0  0  0  0  0  0
  -27.7144   -4.1408    0.0000 H   0  0  0  0  0  0  0  0  0  0  0  0
  -26.5704   -7.3333    0.0000 H   0  0  0  0  0  0  0  0  0  0  0  0
  -28.2949   -9.5633    0.0000 H   0  0  0  0  0  0  0  0  0  0  0  0
  -26.8683   -8.2659    0.0000 H   0  0  0  0  0  0  0  0  0  0  0  0
  -31.3068   -8.1823    0.0000 H   0  0  0  0  0  0  0  0  0  0  0  0
  -30.5769   -7.0884    0.0000 H   0  0  0  0  0  0  0  0  0  0  0  0
  -29.7241  -12.3511    0.0000 H   0  0  0  0  0  0  0  0  0  0  0  0
  -30.0863   -9.1052    0.0000 H   0  0  0  0  0  0  0  0  0  0  0  0
  -31.1615   -6.0569    0.0000 H   0  0  0  0  0  0  0  0  0  0  0  0
  -34.6165   -6.7031    0.0000 H   0  0  0  0  0  0  0  0  0  0  0  0
  -33.7438   -8.0844    0.0000 H   0  0  0  0  0  0  0  0  0  0  0  0
  -32.7199   -3.7941    0.0000 H   0  0  0  0  0  0  0  0  0  0  0  0
  -31.6765   -5.2417    0.0000 H   0  0  0  0  0  0  0  0  0  0  0  0
  -35.9907   -4.3239    0.0000 H   0  0  0  0  0  0  0  0  0  0  0  0
  -35.1315   -5.8879    0.0000 H   0  0  0  0  0  0  0  0  0  0  0  0
  -33.2959   -2.2254    0.0000 H   0  0  0  0  0  0  0  0  0  0  0  0
  -37.2796   -0.1325    0.0000 H   0  0  0  0  0  0  0  0  0  0  0  0
  -38.4879   -2.4324    0.0000 H   0  0  0  0  0  0  0  0  0  0  0  0
  -37.1003   -4.6289    0.0000 H   0  0  0  0  0  0  0  0  0  0  0  0
  -33.0552  -11.1806    0.0000 H   0  0  0  0  0  0  0  0  0  0  0  0
  1  2  1  0
  2  3  1  0
  3  4  2  0
  4  5  1  0
  5  6  2  0
  6  7  1  0
  7  8  2  0
  7  9  1  0
  9 10  1  0
 10 11  1  0
 11 12  2  0
  9 13  1  0
 13 14  1  0
 14 15  2  0
 15 16  1  0
 16 17  2  0
 17 18  1  0
 16 19  1  0
 14 20  1  0
 20 21  1  0
 21 22  2  0
 22 23  1  0
 23 24  2  0
 24 25  1  0
 25 26  2  0
 25 27  1  0
  1 28  2  0
  1 29  1  0
 29 30  1  0
 30 31  1  0
 31 32  1  0
 32 33  2  0
 32 34  1  0
 34 35  1  0
 35 36  1  0
 36 37  1  0
 37 38  1  0
 37 39  1  0
 35 40  1  0
 40 41  2  0
 40 42  1  0
 43 42  1  1
 43 44  1  0
 44 45  1  0
 45 46  1  0
 46 47  1  0
 43 48  1  0
 43 49  1  0
 49 50  2  0
 49 51  1  0
 51 52  1  0
 52 53  1  0
 53 54  1  0
 53 55  1  0
 55 56  1  0
 52 57  1  0
 57 58  2  0
 57 59  1  0
 59 60  1  0
 60 61  1  0
 61 62  1  0
 62 63  1  0
 62 64  1  0
 60 65  1  0
 65 66  2  0
 65 67  1  0
 67 68  1  0
 68 69  1  0
 69 70  1  0
 70 71  1  0
 71 72  1  0
 71 73  2  0
 68 74  1  0
 74 75  2  0
 74 76  1  0
 76 77  1  0
 77 78  1  0
 78 79  1  0
 79 80  1  0
 80 81  1  0
 77 82  1  0
 82 83  1  0
 83 84  1  0
 84 85  1  0
 77 86  1  0
 86 87  2  0
 86 88  1  0
 88 89  1  0
 89 90  1  0
 89 91  1  0
 91 92  2  0
 91 93  1  0
 93 94  1  0
 94 95  1  0
 95 96  1  0
 94 97  1  0
 97 98  2  0
 97 99  1  0
 99100  1  0
100101  1  0
101102  1  0
102103  1  0
103104  1  0
103105  2  0
100106  1  0
106107  2  0
106108  1  0
108109  1  0
109110  1  0
110111  1  0
109112  1  0
112113  2  0
112114  1  0
114115  1  0
115116  1  0
116117  1  0
116118  1  0
118119  1  0
115120  1  0
120121  2  0
120122  1  0
122123  1  0
123124  1  0
124125  1  0
125126  1  0
125127  1  0
123128  1  0
128129  2  0
128130  1  0
130131  1  0
131132  1  0
132133  1  0
133134  1  0
134135  1  0
135136  1  0
136137  1  0
137138  1  0
131139  1  0
131140  1  1
140141  2  0
140142  1  0
142143  1  0
143144  1  0
144145  1  0
145146  1  0
145147  1  0
143148  1  0
148149  2  0
148150  1  0
150151  1  0
151152  1  0
152153  1  0
153154  1  0
154155  2  0
154156  1  0
151157  1  0
157158  2  0
157159  1  0
159160  1  0
160161  1  0
161162  1  0
162163  1  0
163164  1  0
163165  2  0
160166  1  0
166167  2  0
166168  1  0
168169  1  0
169170  1  0
170171  1  0
171172  1  0
172173  1  0
172174  2  0
169175  1  0
175176  2  0
175177  1  0
177178  1  0
178179  1  0
179180  1  0
178181  1  0
181182  2  0
181183  1  0
183184  1  0
184185  1  0
185186  1  0
186187  1  0
187188  1  0
188189  1  0
189190  2  3
189191  1  0
184192  1  0
192193  2  0
192194  1  0
194195  1  0
195196  1  0
196197  1  0
197198  1  0
198199  2  0
198200  1  0
195201  1  0
201202  2  0
201203  1  0
203204  1  0
204205  1  0
205206  1  0
206207  1  0
207208  1  0
208209  1  0
209210  2  3
209211  1  0
204212  1  0
212213  2  0
212214  1  0
  8  3  1  0
 11  6  1  0
 47 81  2  0
 18 13  2  0
 85138  2  0
 22  9  1  0
 26 21  1  0
  2215  1  0
  4216  1  0
  5217  1  0
  8218  1  0
 15219  1  0
 17220  1  0
 18221  1  0
 19222  1  0
 23223  1  0
 24224  1  0
 26225  1  0
 27226  1  0
 29227  1  0
 30228  1  0
 30229  1  0
 31230  1  0
 31231  1  0
 34232  1  0
 35233  1  1
 36234  1  0
 36235  1  0
 37236  1  0
 38237  1  0
 38238  1  0
 38239  1  0
 39240  1  0
 39241  1  0
 39242  1  0
 42243  1  0
 44244  1  0
 44245  1  0
 45246  1  0
 45247  1  0
 46248  1  0
 46249  1  0
 47250  1  0
 48251  1  0
 48252  1  0
 48253  1  0
 51254  1  0
 52255  1  6
 53256  1  1
 54257  1  0
 54258  1  0
 54259  1  0
 55260  1  0
 55261  1  0
 56262  1  0
 56263  1  0
 56264  1  0
 59265  1  0
 60266  1  6
 61267  1  0
 61268  1  0
 62269  1  0
 63270  1  0
 63271  1  0
 63272  1  0
 64273  1  0
 64274  1  0
 64275  1  0
 67276  1  0
 68277  1  6
 69278  1  0
 69279  1  0
 70280  1  0
 70281  1  0
 72282  1  0
 72283  1  0
 76284  1  0
 78285  1  0
 78286  1  0
 79287  1  0
 79288  1  0
 80289  1  0
 80290  1  0
 81291  1  0
 82292  1  0
 82293  1  0
 83294  1  0
 83295  1  0
 84296  1  0
 84297  1  0
 85298  1  0
 88299  1  0
 89300  1  6
 90301  1  0
 90302  1  0
 90303  1  0
 93304  1  0
 94305  1  6
 95306  1  0
 95307  1  0
 96308  1  0
 96309  1  0
 96310  1  0
 99311  1  0
100312  1  6
101313  1  0
101314  1  0
102315  1  0
102316  1  0
104317  1  0
104318  1  0
108319  1  0
109320  1  6
110321  1  0
110322  1  0
111323  1  0
111324  1  0
111325  1  0
114326  1  0
115327  1  6
116328  1  1
117329  1  0
117330  1  0
117331  1  0
118332  1  0
118333  1  0
119334  1  0
119335  1  0
119336  1  0
122337  1  0
123338  1  6
124339  1  0
124340  1  0
125341  1  0
126342  1  0
126343  1  0
126344  1  0
127345  1  0
127346  1  0
127347  1  0
130348  1  0
132349  1  0
132350  1  0
133351  1  0
133352  1  0
134353  1  0
134354  1  0
135355  1  0
135356  1  0
136357  1  0
136358  1  0
137359  1  0
137360  1  0
138361  1  0
139362  1  0
139363  1  0
139364  1  0
142365  1  0
143366  1  1
144367  1  0
144368  1  0
145369  1  0
146370  1  0
146371  1  0
146372  1  0
147373  1  0
147374  1  0
147375  1  0
150376  1  0
151377  1  6
152378  1  0
152379  1  0
153380  1  0
153381  1  0
156382  1  0
159383  1  0
160384  1  1
161385  1  0
161386  1  0
162387  1  0
162388  1  0
164389  1  0
164390  1  0
168391  1  0
169392  1  6
170393  1  0
170394  1  0
171395  1  0
171396  1  0
173397  1  0
173398  1  0
177399  1  0
178400  1  1
179401  1  0
179402  1  0
180403  1  0
180404  1  0
180405  1  0
183406  1  0
184407  1  6
185408  1  0
185409  1  0
186410  1  0
186411  1  0
187412  1  0
187413  1  0
188414  1  0
190415  1  0
191416  1  0
191417  1  0
194418  1  0
195419  1  1
196420  1  0
196421  1  0
197422  1  0
197423  1  0
200424  1  0
203425  1  0
204426  1  6
205427  1  0
205428  1  0
206429  1  0
206430  1  0
207431  1  0
207432  1  0
208433  1  0
210434  1  0
211435  1  0
211436  1  0
214437  1  0
M  END
