
     RDKit          2D

372374  0  0  0  0  0  0  0  0999 V2000
  -29.3830   -0.4534    0.0000 N   0  0  0  0  0  0  0  0  0  0  0  0
  -27.9317   -0.8323    0.0000 C   0  0  0  0  0  0  0  0  0  0  0  0
  -27.5341   -2.2786    0.0000 C   0  0  0  0  0  0  0  0  0  0  0  0
  -26.0827   -2.6575    0.0000 C   0  0  0  0  0  0  0  0  0  0  0  0
  -25.0289   -1.5900    0.0000 O   0  0  0  0  0  0  0  0  0  0  0  0
  -25.6851   -4.1038    0.0000 N   0  0  0  0  0  0  0  0  0  0  0  0
  -24.2338   -4.4827    0.0000 C   0  0  0  0  0  0  0  0  0  0  0  0
  -24.8589   -5.8462    0.0000 C   0  0  0  0  0  0  0  0  0  0  0  0
  -24.9800   -7.3413    0.0000 O   0  0  0  0  0  0  0  0  0  0  0  0
  -26.3523   -5.9866    0.0000 C   0  0  0  0  0  0  0  0  0  0  0  0
  -22.7403   -4.3423    0.0000 C   0  0  0  0  0  0  0  0  0  0  0  0
  -21.8721   -5.5654    0.0000 O   0  0  0  0  0  0  0  0  0  0  0  0
  -22.1152   -2.9788    0.0000 N   0  0  0  0  0  0  0  0  0  0  0  0
  -20.6218   -2.8384    0.0000 C   0  0  0  0  0  0  0  0  0  0  0  0
  -21.0194   -1.3920    0.0000 C   0  0  0  0  0  0  0  0  0  0  0  0
  -22.4708   -1.0132    0.0000 C   0  0  0  0  0  0  0  0  0  0  0  0
  -22.8683    0.4332    0.0000 C   0  0  0  0  0  0  0  0  0  0  0  0
  -24.3197    0.8120    0.0000 N   0  0  0  0  0  0  0  0  0  0  0  0
  -24.7173    2.2584    0.0000 C   0  0  0  0  0  0  0  0  0  0  0  0
  -26.1687    2.6373    0.0000 N   0  0  0  0  0  0  0  0  0  0  0  0
  -23.6635    3.3259    0.0000 N   0  0  0  0  0  0  0  0  0  0  0  0
  -19.1704   -3.2172    0.0000 C   0  0  0  0  0  0  0  0  0  0  0  0
  -18.1167   -2.1497    0.0000 O   0  0  0  0  0  0  0  0  0  0  0  0
  -18.7729   -4.6636    0.0000 N   0  0  0  0  0  0  0  0  0  0  0  0
  -17.3215   -5.0424    0.0000 C   0  0  0  0  0  0  0  0  0  0  0  0
  -17.9466   -6.4060    0.0000 C   0  0  0  0  0  0  0  0  0  0  0  0
  -19.4400   -6.5464    0.0000 C   0  0  0  0  0  0  0  0  0  0  0  0
  -20.0652   -7.9099    0.0000 C   0  0  0  0  0  0  0  0  0  0  0  0
  -21.5586   -8.0503    0.0000 N   0  0  0  0  0  0  0  0  0  0  0  0
  -19.1969   -9.1330    0.0000 O   0  0  0  0  0  0  0  0  0  0  0  0
  -15.8281   -4.9021    0.0000 C   0  0  0  0  0  0  0  0  0  0  0  0
  -15.1154   -6.2219    0.0000 O   0  0  0  0  0  0  0  0  0  0  0  0
  -15.2029   -3.5385    0.0000 N   0  0  0  0  0  0  0  0  0  0  0  0
  -13.7095   -3.3981    0.0000 C   0  0  0  0  0  0  0  0  0  0  0  0
  -12.6161   -4.4250    0.0000 C   0  0  0  0  0  0  0  0  0  0  0  0
  -11.2686   -5.0839    0.0000 C   0  0  0  0  0  0  0  0  0  0  0  0
   -9.7867   -5.3164    0.0000 C   0  0  0  0  0  0  0  0  0  0  0  0
   -8.3021   -5.1017    0.0000 C   0  0  0  0  0  0  0  0  0  0  0  0
  -14.3651   -4.7473    0.0000 C   0  0  0  0  0  0  0  0  0  0  0  0
  -14.4517   -2.0946    0.0000 C   0  0  0  0  0  0  0  0  0  0  0  0
  -15.9066   -2.4596    0.0000 O   0  0  0  0  0  0  0  0  0  0  0  0
  -14.7767   -0.6302    0.0000 N   0  0  0  0  0  0  0  0  0  0  0  0
  -14.6556    0.8649    0.0000 C   0  0  0  0  0  0  0  0  0  0  0  0
  -16.0682    0.3603    0.0000 C   0  0  0  0  0  0  0  0  0  0  0  0
  -17.2115    1.3314    0.0000 C   0  0  0  0  0  0  0  0  0  0  0  0
  -18.6241    0.8268    0.0000 C   0  0  0  0  0  0  0  0  0  0  0  0
  -19.7673    1.7979    0.0000 N   0  0  0  0  0  0  0  0  0  0  0  0
  -21.1799    1.2933    0.0000 C   0  0  0  0  0  0  0  0  0  0  0  0
  -22.0542    2.5122    0.0000 N   0  0  0  0  0  0  0  0  0  0  0  0
  -21.0842   -0.2036    0.0000 N   0  0  0  0  0  0  0  0  0  0  0  0
  -14.0992    2.2579    0.0000 C   0  0  0  0  0  0  0  0  0  0  0  0
  -15.3938    3.0156    0.0000 O   0  0  0  0  0  0  0  0  0  0  0  0
  -13.1570    3.4250    0.0000 N   0  0  0  0  0  0  0  0  0  0  0  0
  -11.9126    4.2625    0.0000 C   0  0  0  0  0  0  0  0  0  0  0  0
  -13.1878    5.0523    0.0000 C   0  0  0  0  0  0  0  0  0  0  0  0
  -13.1414    6.5516    0.0000 C   0  0  0  0  0  0  0  0  0  0  0  0
  -14.4166    7.3414    0.0000 C   0  0  0  0  0  0  0  0  0  0  0  0
  -14.3702    8.8407    0.0000 N   0  0  0  0  0  0  0  0  0  0  0  0
  -15.6454    9.6305    0.0000 C   0  0  0  0  0  0  0  0  0  0  0  0
  -15.5990   11.1298    0.0000 N   0  0  0  0  0  0  0  0  0  0  0  0
  -16.9670    8.9211    0.0000 N   0  0  0  0  0  0  0  0  0  0  0  0
  -10.4766    4.6960    0.0000 C   0  0  0  0  0  0  0  0  0  0  0  0
  -10.6912    6.1806    0.0000 O   0  0  0  0  0  0  0  0  0  0  0  0
   -8.9766    4.6870    0.0000 N   0  0  0  0  0  0  0  0  0  0  0  0
   -7.5459    4.2363    0.0000 C   0  0  0  0  0  0  0  0  0  0  0  0
   -7.7235    5.7257    0.0000 C   0  0  0  0  0  0  0  0  0  0  0  0
   -6.5224    6.6242    0.0000 C   0  0  0  0  0  0  0  0  0  0  0  0
   -6.7000    8.1137    0.0000 C   0  0  0  0  0  0  0  0  0  0  0  0
   -5.4988    9.0122    0.0000 N   0  0  0  0  0  0  0  0  0  0  0  0
   -8.0787    8.7046    0.0000 O   0  0  0  0  0  0  0  0  0  0  0  0
   -6.3117    3.3839    0.0000 C   0  0  0  0  0  0  0  0  0  0  0  0
   -5.2848    4.4773    0.0000 O   0  0  0  0  0  0  0  0  0  0  0  0
   -5.3835    2.2055    0.0000 N   0  0  0  0  0  0  0  0  0  0  0  0
   -4.8439    0.8059    0.0000 C   0  0  0  0  0  0  0  0  0  0  0  0
   -4.7408   -0.6905    0.0000 C   0  0  0  0  0  0  0  0  0  0  0  0
   -5.0833   -2.1509    0.0000 C   0  0  0  0  0  0  0  0  0  0  0  0
   -5.8411   -3.4454    0.0000 C   0  0  0  0  0  0  0  0  0  0  0  0
   -6.9468   -4.4590    0.0000 C   0  0  0  0  0  0  0  0  0  0  0  0
   -3.3844    0.4598    0.0000 C   0  0  0  0  0  0  0  0  0  0  0  0
   -3.7901    1.8734    0.0000 C   0  0  0  0  0  0  0  0  0  0  0  0
   -4.0084    3.3575    0.0000 O   0  0  0  0  0  0  0  0  0  0  0  0
   -2.3387    1.4946    0.0000 N   0  0  0  0  0  0  0  0  0  0  0  0
   -1.2849    2.5621    0.0000 C   0  0  0  0  0  0  0  0  0  0  0  0
   -0.6598    3.9256    0.0000 C   0  0  0  0  0  0  0  0  0  0  0  0
    0.8336    4.0660    0.0000 C   0  0  0  0  0  0  0  0  0  0  0  0
    1.4587    5.4295    0.0000 C   0  0  0  0  0  0  0  0  0  0  0  0
    2.9522    5.5699    0.0000 N   0  0  0  0  0  0  0  0  0  0  0  0
    3.5773    6.9334    0.0000 C   0  0  0  0  0  0  0  0  0  0  0  0
    5.0707    7.0738    0.0000 N   0  0  0  0  0  0  0  0  0  0  0  0
    2.7090    8.1566    0.0000 N   0  0  0  0  0  0  0  0  0  0  0  0
    0.1664    2.1832    0.0000 C   0  0  0  0  0  0  0  0  0  0  0  0
    0.5640    0.7368    0.0000 O   0  0  0  0  0  0  0  0  0  0  0  0
    1.2202    3.2507    0.0000 N   0  0  0  0  0  0  0  0  0  0  0  0
    2.6716    2.8718    0.0000 C   0  0  0  0  0  0  0  0  0  0  0  0
    4.1650    3.0122    0.0000 C   0  0  0  0  0  0  0  0  0  0  0  0
    4.7901    4.3757    0.0000 C   0  0  0  0  0  0  0  0  0  0  0  0
    6.2835    4.5161    0.0000 C   0  0  0  0  0  0  0  0  0  0  0  0
    6.9087    5.8797    0.0000 N   0  0  0  0  0  0  0  0  0  0  0  0
    8.4021    6.0200    0.0000 C   0  0  0  0  0  0  0  0  0  0  0  0
    9.0272    7.3836    0.0000 N   0  0  0  0  0  0  0  0  0  0  0  0
    9.2704    4.7969    0.0000 N   0  0  0  0  0  0  0  0  0  0  0  0
    3.0692    1.4255    0.0000 C   0  0  0  0  0  0  0  0  0  0  0  0
    2.0154    0.3580    0.0000 O   0  0  0  0  0  0  0  0  0  0  0  0
    4.5205    1.0466    0.0000 N   0  0  0  0  0  0  0  0  0  0  0  0
    4.9181   -0.3997    0.0000 C   0  0  0  0  0  0  0  0  0  0  0  0
    4.7970   -1.8948    0.0000 C   0  0  0  0  0  0  0  0  0  0  0  0
    6.0313   -2.7472    0.0000 C   0  0  0  0  0  0  0  0  0  0  0  0
    5.9102   -4.2423    0.0000 C   0  0  0  0  0  0  0  0  0  0  0  0
    7.1445   -5.0948    0.0000 N   0  0  0  0  0  0  0  0  0  0  0  0
    7.0234   -6.5899    0.0000 C   0  0  0  0  0  0  0  0  0  0  0  0
    8.2577   -7.4423    0.0000 N   0  0  0  0  0  0  0  0  0  0  0  0
    5.6681   -7.2326    0.0000 N   0  0  0  0  0  0  0  0  0  0  0  0
    6.3695   -0.7786    0.0000 C   0  0  0  0  0  0  0  0  0  0  0  0
    6.7671   -2.2249    0.0000 O   0  0  0  0  0  0  0  0  0  0  0  0
    7.4233    0.2889    0.0000 N   0  0  0  0  0  0  0  0  0  0  0  0
    8.8746   -0.0900    0.0000 C   0  0  0  0  0  0  0  0  0  0  0  0
   10.1089   -0.9424    0.0000 C   0  0  0  0  0  0  0  0  0  0  0  0
    9.9878   -2.4375    0.0000 C   0  0  0  0  0  0  0  0  0  0  0  0
    8.7071   -3.2183    0.0000 C   0  0  0  0  0  0  0  0  0  0  0  0
    9.0539   -4.6777    0.0000 N   0  0  0  0  0  0  0  0  0  0  0  0
   10.5490   -4.7987    0.0000 C   0  0  0  0  0  0  0  0  0  0  0  0
   11.4595   -5.9908    0.0000 C   0  0  0  0  0  0  0  0  0  0  0  0
   12.9471   -5.7984    0.0000 C   0  0  0  0  0  0  0  0  0  0  0  0
   13.5243   -4.4139    0.0000 C   0  0  0  0  0  0  0  0  0  0  0  0
   12.6138   -3.2218    0.0000 C   0  0  0  0  0  0  0  0  0  0  0  0
   11.1262   -3.4142    0.0000 C   0  0  0  0  0  0  0  0  0  0  0  0
    9.9284    0.9775    0.0000 C   0  0  0  0  0  0  0  0  0  0  0  0
    9.5308    2.4239    0.0000 O   0  0  0  0  0  0  0  0  0  0  0  0
   11.3798    0.5987    0.0000 N   0  0  0  0  0  0  0  0  0  0  0  0
   12.4336    1.6662    0.0000 C   0  0  0  0  0  0  0  0  0  0  0  0
   13.0587    3.0297    0.0000 C   0  0  0  0  0  0  0  0  0  0  0  0
   14.5521    3.1701    0.0000 C   0  0  0  0  0  0  0  0  0  0  0  0
   15.1772    4.5336    0.0000 C   0  0  0  0  0  0  0  0  0  0  0  0
   16.6707    4.6740    0.0000 N   0  0  0  0  0  0  0  0  0  0  0  0
   17.2958    6.0375    0.0000 C   0  0  0  0  0  0  0  0  0  0  0  0
   18.7892    6.1779    0.0000 N   0  0  0  0  0  0  0  0  0  0  0  0
   16.4275    7.2607    0.0000 N   0  0  0  0  0  0  0  0  0  0  0  0
   13.8849    1.2873    0.0000 C   0  0  0  0  0  0  0  0  0  0  0  0
   14.2825   -0.1590    0.0000 O   0  0  0  0  0  0  0  0  0  0  0  0
   14.9387    2.3548    0.0000 N   0  0  0  0  0  0  0  0  0  0  0  0
   16.3901    1.9759    0.0000 C   0  0  0  0  0  0  0  0  0  0  0  0
   17.8835    2.1163    0.0000 C   0  0  0  0  0  0  0  0  0  0  0  0
   18.5086    3.4799    0.0000 C   0  0  0  0  0  0  0  0  0  0  0  0
   20.0020    3.6202    0.0000 C   0  0  0  0  0  0  0  0  0  0  0  0
   20.6272    4.9838    0.0000 O   0  0  0  0  0  0  0  0  0  0  0  0
   20.8703    2.3971    0.0000 O   0  0  0  0  0  0  0  0  0  0  0  0
   16.7877    0.5296    0.0000 C   0  0  0  0  0  0  0  0  0  0  0  0
   15.7339   -0.5379    0.0000 O   0  0  0  0  0  0  0  0  0  0  0  0
   18.2390    0.1507    0.0000 N   0  0  0  0  0  0  0  0  0  0  0  0
   18.6366   -1.2956    0.0000 C   0  0  0  0  0  0  0  0  0  0  0  0
   18.5155   -2.7907    0.0000 C   0  0  0  0  0  0  0  0  0  0  0  0
   19.7498   -3.6431    0.0000 C   0  0  0  0  0  0  0  0  0  0  0  0
   19.6287   -5.1382    0.0000 C   0  0  0  0  0  0  0  0  0  0  0  0
   20.8630   -5.9906    0.0000 N   0  0  0  0  0  0  0  0  0  0  0  0
   20.7419   -7.4857    0.0000 C   0  0  0  0  0  0  0  0  0  0  0  0
   21.9762   -8.3382    0.0000 N   0  0  0  0  0  0  0  0  0  0  0  0
   19.3866   -8.1284    0.0000 N   0  0  0  0  0  0  0  0  0  0  0  0
   20.0880   -1.6745    0.0000 C   0  0  0  0  0  0  0  0  0  0  0  0
   21.1418   -0.6070    0.0000 O   0  0  0  0  0  0  0  0  0  0  0  0
   20.4856   -3.1208    0.0000 N   0  0  0  0  0  0  0  0  0  0  0  0
   21.9369   -3.4997    0.0000 C   0  0  0  0  0  0  0  0  0  0  0  0
   23.1712   -4.3521    0.0000 C   0  0  0  0  0  0  0  0  0  0  0  0
   23.0501   -5.8472    0.0000 C   0  0  0  0  0  0  0  0  0  0  0  0
   24.2844   -6.6996    0.0000 C   0  0  0  0  0  0  0  0  0  0  0  0
   24.1633   -8.1947    0.0000 N   0  0  0  0  0  0  0  0  0  0  0  0
   25.6397   -6.0569    0.0000 O   0  0  0  0  0  0  0  0  0  0  0  0
   22.9907   -2.4322    0.0000 C   0  0  0  0  0  0  0  0  0  0  0  0
   22.5931   -0.9858    0.0000 O   0  0  0  0  0  0  0  0  0  0  0  0
   24.4421   -2.8110    0.0000 N   0  0  0  0  0  0  0  0  0  0  0  0
   25.4959   -1.7436    0.0000 C   0  0  0  0  0  0  0  0  0  0  0  0
   26.1210   -0.3800    0.0000 C   0  0  0  0  0  0  0  0  0  0  0  0
   27.6144   -0.2396    0.0000 C   0  0  0  0  0  0  0  0  0  0  0  0
   28.2395    1.1239    0.0000 C   0  0  0  0  0  0  0  0  0  0  0  0
   29.7330    1.2643    0.0000 N   0  0  0  0  0  0  0  0  0  0  0  0
   30.3581    2.6278    0.0000 C   0  0  0  0  0  0  0  0  0  0  0  0
   31.8515    2.7682    0.0000 N   0  0  0  0  0  0  0  0  0  0  0  0
   29.4898    3.8509    0.0000 N   0  0  0  0  0  0  0  0  0  0  0  0
   26.9472   -2.1224    0.0000 C   0  0  0  0  0  0  0  0  0  0  0  0
   28.1233   -1.1913    0.0000 O   0  0  0  0  0  0  0  0  0  0  0  0
   27.3448   -3.5688    0.0000 O   0  0  0  0  0  0  0  0  0  0  0  0
  -29.7806    0.9930    0.0000 H   0  0  0  0  0  0  0  0  0  0  0  0
  -30.4368   -1.5209    0.0000 H   0  0  0  0  0  0  0  0  0  0  0  0
  -27.8106    0.6629    0.0000 H   0  0  0  0  0  0  0  0  0  0  0  0
  -26.4382   -0.6919    0.0000 H   0  0  0  0  0  0  0  0  0  0  0  0
  -29.0275   -2.4190    0.0000 H   0  0  0  0  0  0  0  0  0  0  0  0
  -27.6552   -3.7737    0.0000 H   0  0  0  0  0  0  0  0  0  0  0  0
  -26.3101   -4.5986    0.0000 H   0  0  0  0  0  0  0  0  0  0  0  0
  -24.1127   -2.9876    0.0000 H   0  0  0  0  0  0  0  0  0  0  0  0
  -23.4075   -6.2251    0.0000 H   0  0  0  0  0  0  0  0  0  0  0  0
  -26.2469   -8.1444    0.0000 H   0  0  0  0  0  0  0  0  0  0  0  0
  -26.9492   -5.3322    0.0000 H   0  0  0  0  0  0  0  0  0  0  0  0
  -27.7076   -6.6293    0.0000 H   0  0  0  0  0  0  0  0  0  0  0  0
  -26.1340   -7.4706    0.0000 H   0  0  0  0  0  0  0  0  0  0  0  0
  -23.1261   -1.8706    0.0000 H   0  0  0  0  0  0  0  0  0  0  0  0
  -20.7429   -4.3335    0.0000 H   0  0  0  0  0  0  0  0  0  0  0  0
  -20.5401    0.0294    0.0000 H   0  0  0  0  0  0  0  0  0  0  0  0
  -19.5200   -1.4347    0.0000 H   0  0  0  0  0  0  0  0  0  0  0  0
  -23.9642   -1.1535    0.0000 H   0  0  0  0  0  0  0  0  0  0  0  0
  -23.1197   -2.3655    0.0000 H   0  0  0  0  0  0  0  0  0  0  0  0
  -22.9304    1.9319    0.0000 H   0  0  0  0  0  0  0  0  0  0  0  0
  -21.3853    0.2080    0.0000 H   0  0  0  0  0  0  0  0  0  0  0  0
  -25.3735   -0.2554    0.0000 H   0  0  0  0  0  0  0  0  0  0  0  0
  -26.5662    4.0836    0.0000 H   0  0  0  0  0  0  0  0  0  0  0  0
  -27.2224    1.5698    0.0000 H   0  0  0  0  0  0  0  0  0  0  0  0
  -24.0611    4.7722    0.0000 H   0  0  0  0  0  0  0  0  0  0  0  0
  -22.1636    3.3095    0.0000 H   0  0  0  0  0  0  0  0  0  0  0  0
  -19.9489   -5.5947    0.0000 H   0  0  0  0  0  0  0  0  0  0  0  0
  -17.2004   -3.5473    0.0000 H   0  0  0  0  0  0  0  0  0  0  0  0
  -18.0677   -7.9011    0.0000 H   0  0  0  0  0  0  0  0  0  0  0  0
  -16.4953   -6.7848    0.0000 H   0  0  0  0  0  0  0  0  0  0  0  0
  -20.8914   -6.1675    0.0000 H   0  0  0  0  0  0  0  0  0  0  0  0
  -19.8629   -5.1072    0.0000 H   0  0  0  0  0  0  0  0  0  0  0  0
  -22.1837   -9.4138    0.0000 H   0  0  0  0  0  0  0  0  0  0  0  0
  -22.4269   -6.8271    0.0000 H   0  0  0  0  0  0  0  0  0  0  0  0
  -16.2138   -2.4303    0.0000 H   0  0  0  0  0  0  0  0  0  0  0  0
  -12.6625   -5.9243    0.0000 H   0  0  0  0  0  0  0  0  0  0  0  0
  -13.9214   -5.1639    0.0000 H   0  0  0  0  0  0  0  0  0  0  0  0
  -11.0503   -6.5679    0.0000 H   0  0  0  0  0  0  0  0  0  0  0  0
  -12.2981   -6.1748    0.0000 H   0  0  0  0  0  0  0  0  0  0  0  0
   -8.9805   -6.5813    0.0000 H   0  0  0  0  0  0  0  0  0  0  0  0
  -10.4489   -6.6623    0.0000 H   0  0  0  0  0  0  0  0  0  0  0  0
   -7.8686   -6.5377    0.0000 H   0  0  0  0  0  0  0  0  0  0  0  0
  -15.5424   -5.4101    0.0000 H   0  0  0  0  0  0  0  0  0  0  0  0
  -13.9775   -6.2811    0.0000 H   0  0  0  0  0  0  0  0  0  0  0  0
  -12.9320   -5.6214    0.0000 H   0  0  0  0  0  0  0  0  0  0  0  0
  -16.2732   -0.7334    0.0000 H   0  0  0  0  0  0  0  0  0  0  0  0
  -15.5571    2.0638    0.0000 H   0  0  0  0  0  0  0  0  0  0  0  0
  -17.0978   -0.7306    0.0000 H   0  0  0  0  0  0  0  0  0  0  0  0
  -15.6635   -1.0841    0.0000 H   0  0  0  0  0  0  0  0  0  0  0  0
  -17.9537    2.6349    0.0000 H   0  0  0  0  0  0  0  0  0  0  0  0
  -16.1819    2.4223    0.0000 H   0  0  0  0  0  0  0  0  0  0  0  0
  -19.7789   -0.1305    0.0000 H   0  0  0  0  0  0  0  0  0  0  0  0
  -18.0463   -0.5575    0.0000 H   0  0  0  0  0  0  0  0  0  0  0  0
  -19.4980    3.2735    0.0000 H   0  0  0  0  0  0  0  0  0  0  0  0
  -23.7358    1.7598    0.0000 H   0  0  0  0  0  0  0  0  0  0  0  0
  -21.9042    3.7308    0.0000 H   0  0  0  0  0  0  0  0  0  0  0  0
  -22.9260   -0.2424    0.0000 H   0  0  0  0  0  0  0  0  0  0  0  0
  -20.0173   -0.8113    0.0000 H   0  0  0  0  0  0  0  0  0  0  0  0
  -14.1706    4.5306    0.0000 H   0  0  0  0  0  0  0  0  0  0  0  0
  -11.5373    5.7148    0.0000 H   0  0  0  0  0  0  0  0  0  0  0  0
  -14.6826    5.1771    0.0000 H   0  0  0  0  0  0  0  0  0  0  0  0
  -14.0647    3.8353    0.0000 H   0  0  0  0  0  0  0  0  0  0  0  0
  -12.5850    7.9446    0.0000 H   0  0  0  0  0  0  0  0  0  0  0  0
  -11.6466    6.4268    0.0000 H   0  0  0  0  0  0  0  0  0  0  0  0
  -15.8850    7.6475    0.0000 H   0  0  0  0  0  0  0  0  0  0  0  0
  -15.1386    6.0266    0.0000 H   0  0  0  0  0  0  0  0  0  0  0  0
  -13.0486    9.5502    0.0000 H   0  0  0  0  0  0  0  0  0  0  0  0
  -16.8742   11.9196    0.0000 H   0  0  0  0  0  0  0  0  0  0  0  0
  -14.2774   11.8393    0.0000 H   0  0  0  0  0  0  0  0  0  0  0  0
  -18.2423    9.7109    0.0000 H   0  0  0  0  0  0  0  0  0  0  0  0
  -17.0134    7.4218    0.0000 H   0  0  0  0  0  0  0  0  0  0  0  0
   -8.7441    6.1689    0.0000 H   0  0  0  0  0  0  0  0  0  0  0  0
   -6.1765    4.8483    0.0000 H   0  0  0  0  0  0  0  0  0  0  0  0
   -8.3998    7.0646    0.0000 H   0  0  0  0  0  0  0  0  0  0  0  0
   -9.2217    5.6526    0.0000 H   0  0  0  0  0  0  0  0  0  0  0  0
   -5.0864    7.0577    0.0000 H   0  0  0  0  0  0  0  0  0  0  0  0
   -5.6879    5.3778    0.0000 H   0  0  0  0  0  0  0  0  0  0  0  0
   -5.6764   10.5016    0.0000 H   0  0  0  0  0  0  0  0  0  0  0  0
   -4.1202    8.4212    0.0000 H   0  0  0  0  0  0  0  0  0  0  0  0
   -4.1802    3.1011    0.0000 H   0  0  0  0  0  0  0  0  0  0  0  0
   -3.3425   -0.1475    0.0000 H   0  0  0  0  0  0  0  0  0  0  0  0
   -3.5505   -1.6034    0.0000 H   0  0  0  0  0  0  0  0  0  0  0  0
   -3.5871   -2.0441    0.0000 H   0  0  0  0  0  0  0  0  0  0  0  0
   -4.0724   -3.2591    0.0000 H   0  0  0  0  0  0  0  0  0  0  0  0
   -4.3799   -3.7843    0.0000 H   0  0  0  0  0  0  0  0  0  0  0  0
   -5.3719   -4.8701    0.0000 H   0  0  0  0  0  0  0  0  0  0  0  0
   -6.1093   -5.7034    0.0000 H   0  0  0  0  0  0  0  0  0  0  0  0
   -2.1261    0.9519    0.0000 H   0  0  0  0  0  0  0  0  0  0  0  0
   -2.4421   -0.8110    0.0000 H   0  0  0  0  0  0  0  0  0  0  0  0
   -3.6145   -1.2030    0.0000 H   0  0  0  0  0  0  0  0  0  0  0  0
   -1.7678    0.1075    0.0000 H   0  0  0  0  0  0  0  0  0  0  0  0
   -2.5192    3.4145    0.0000 H   0  0  0  0  0  0  0  0  0  0  0  0
   -0.7219    5.4243    0.0000 H   0  0  0  0  0  0  0  0  0  0  0  0
   -2.1112    4.3044    0.0000 H   0  0  0  0  0  0  0  0  0  0  0  0
    2.3203    3.8669    0.0000 H   0  0  0  0  0  0  0  0  0  0  0  0
    1.4288    2.6891    0.0000 H   0  0  0  0  0  0  0  0  0  0  0  0
    1.5798    6.9246    0.0000 H   0  0  0  0  0  0  0  0  0  0  0  0
    0.0644    5.9825    0.0000 H   0  0  0  0  0  0  0  0  0  0  0  0
    3.6649    4.2500    0.0000 H   0  0  0  0  0  0  0  0  0  0  0  0
    5.6958    8.4373    0.0000 H   0  0  0  0  0  0  0  0  0  0  0  0
    5.9390    5.8507    0.0000 H   0  0  0  0  0  0  0  0  0  0  0  0
    3.3341    9.5201    0.0000 H   0  0  0  0  0  0  0  0  0  0  0  0
    1.2156    8.0162    0.0000 H   0  0  0  0  0  0  0  0  0  0  0  0
    1.1844    4.7503    0.0000 H   0  0  0  0  0  0  0  0  0  0  0  0
    2.7927    4.3669    0.0000 H   0  0  0  0  0  0  0  0  0  0  0  0
    5.6164    2.6334    0.0000 H   0  0  0  0  0  0  0  0  0  0  0  0
    4.4093    1.5322    0.0000 H   0  0  0  0  0  0  0  0  0  0  0  0
    4.9112    5.8709    0.0000 H   0  0  0  0  0  0  0  0  0  0  0  0
    3.2902    4.3922    0.0000 H   0  0  0  0  0  0  0  0  0  0  0  0
    7.7349    4.1373    0.0000 H   0  0  0  0  0  0  0  0  0  0  0  0
    6.3456    3.0174    0.0000 H   0  0  0  0  0  0  0  0  0  0  0  0
    6.0404    7.1028    0.0000 H   0  0  0  0  0  0  0  0  0  0  0  0
   10.5206    7.5240    0.0000 H   0  0  0  0  0  0  0  0  0  0  0  0
    8.1589    8.6067    0.0000 H   0  0  0  0  0  0  0  0  0  0  0  0
   10.7638    4.9373    0.0000 H   0  0  0  0  0  0  0  0  0  0  0  0
    8.6452    3.4334    0.0000 H   0  0  0  0  0  0  0  0  0  0  0  0
    5.6966    1.9777    0.0000 H   0  0  0  0  0  0  0  0  0  0  0  0
    3.4247   -0.5401    0.0000 H   0  0  0  0  0  0  0  0  0  0  0  0
    4.0104   -3.1720    0.0000 H   0  0  0  0  0  0  0  0  0  0  0  0
    3.3457   -1.5160    0.0000 H   0  0  0  0  0  0  0  0  0  0  0  0
    7.5180   -2.9464    0.0000 H   0  0  0  0  0  0  0  0  0  0  0  0
    7.1036   -1.6984    0.0000 H   0  0  0  0  0  0  0  0  0  0  0  0
    5.2851   -5.6059    0.0000 H   0  0  0  0  0  0  0  0  0  0  0  0
    4.4235   -4.0432    0.0000 H   0  0  0  0  0  0  0  0  0  0  0  0
    8.6151   -4.7991    0.0000 H   0  0  0  0  0  0  0  0  0  0  0  0
    8.1366   -8.9374    0.0000 H   0  0  0  0  0  0  0  0  0  0  0  0
    9.6130   -6.7996    0.0000 H   0  0  0  0  0  0  0  0  0  0  0  0
    5.5470   -8.7277    0.0000 H   0  0  0  0  0  0  0  0  0  0  0  0
    4.4338   -6.3801    0.0000 H   0  0  0  0  0  0  0  0  0  0  0  0
    7.0257    1.7353    0.0000 H   0  0  0  0  0  0  0  0  0  0  0  0
    8.2495   -1.4535    0.0000 H   0  0  0  0  0  0  0  0  0  0  0  0
   11.5033   -1.4953    0.0000 H   0  0  0  0  0  0  0  0  0  0  0  0
   11.0454    0.2294    0.0000 H   0  0  0  0  0  0  0  0  0  0  0  0
    7.3226   -2.6412    0.0000 H   0  0  0  0  0  0  0  0  0  0  0  0
    8.0772   -5.8161    0.0000 H   0  0  0  0  0  0  0  0  0  0  0  0
   10.8823   -7.3753    0.0000 H   0  0  0  0  0  0  0  0  0  0  0  0
   13.8575   -6.9905    0.0000 H   0  0  0  0  0  0  0  0  0  0  0  0
   15.0119   -4.2215    0.0000 H   0  0  0  0  0  0  0  0  0  0  0  0
   13.1910   -1.8373    0.0000 H   0  0  0  0  0  0  0  0  0  0  0  0
   11.9507   -0.7884    0.0000 H   0  0  0  0  0  0  0  0  0  0  0  0
   11.1993    2.5186    0.0000 H   0  0  0  0  0  0  0  0  0  0  0  0
   12.9966    4.5284    0.0000 H   0  0  0  0  0  0  0  0  0  0  0  0
   11.6073    3.4086    0.0000 H   0  0  0  0  0  0  0  0  0  0  0  0
   16.0388    2.9710    0.0000 H   0  0  0  0  0  0  0  0  0  0  0  0
   15.1473    1.7932    0.0000 H   0  0  0  0  0  0  0  0  0  0  0  0
   15.2983    6.0287    0.0000 H   0  0  0  0  0  0  0  0  0  0  0  0
   13.7829    5.0866    0.0000 H   0  0  0  0  0  0  0  0  0  0  0  0
   17.3834    3.3541    0.0000 H   0  0  0  0  0  0  0  0  0  0  0  0
   19.4143    7.5414    0.0000 H   0  0  0  0  0  0  0  0  0  0  0  0
   19.6575    4.9548    0.0000 H   0  0  0  0  0  0  0  0  0  0  0  0
   17.0526    8.6242    0.0000 H   0  0  0  0  0  0  0  0  0  0  0  0
   14.9341    7.1203    0.0000 H   0  0  0  0  0  0  0  0  0  0  0  0
   14.9029    3.8544    0.0000 H   0  0  0  0  0  0  0  0  0  0  0  0
   16.5112    3.4711    0.0000 H   0  0  0  0  0  0  0  0  0  0  0  0
   19.3702    1.9172    0.0000 H   0  0  0  0  0  0  0  0  0  0  0  0
   18.1278    0.6364    0.0000 H   0  0  0  0  0  0  0  0  0  0  0  0
   18.6297    4.9750    0.0000 H   0  0  0  0  0  0  0  0  0  0  0  0
   17.0087    3.4963    0.0000 H   0  0  0  0  0  0  0  0  0  0  0  0
   19.4151    1.0818    0.0000 H   0  0  0  0  0  0  0  0  0  0  0  0
   17.1432   -1.4360    0.0000 H   0  0  0  0  0  0  0  0  0  0  0  0
   17.7289   -4.0679    0.0000 H   0  0  0  0  0  0  0  0  0  0  0  0
   17.0642   -2.4119    0.0000 H   0  0  0  0  0  0  0  0  0  0  0  0
   21.1442   -4.1961    0.0000 H   0  0  0  0  0  0  0  0  0  0  0  0
   20.9420   -2.7328    0.0000 H   0  0  0  0  0  0  0  0  0  0  0  0
   19.0036   -6.5018    0.0000 H   0  0  0  0  0  0  0  0  0  0  0  0
   18.1420   -4.9391    0.0000 H   0  0  0  0  0  0  0  0  0  0  0  0
   22.1299   -5.1875    0.0000 H   0  0  0  0  0  0  0  0  0  0  0  0
   21.8551   -9.8333    0.0000 H   0  0  0  0  0  0  0  0  0  0  0  0
   23.3315   -7.6955    0.0000 H   0  0  0  0  0  0  0  0  0  0  0  0
   19.2655   -9.6235    0.0000 H   0  0  0  0  0  0  0  0  0  0  0  0
   18.1523   -7.2760    0.0000 H   0  0  0  0  0  0  0  0  0  0  0  0
   19.7214   -4.4116    0.0000 H   0  0  0  0  0  0  0  0  0  0  0  0
   21.3118   -4.8632    0.0000 H   0  0  0  0  0  0  0  0  0  0  0  0
   24.5656   -4.9050    0.0000 H   0  0  0  0  0  0  0  0  0  0  0  0
   24.1077   -3.1803    0.0000 H   0  0  0  0  0  0  0  0  0  0  0  0
   22.4250   -7.2107    0.0000 H   0  0  0  0  0  0  0  0  0  0  0  0
   21.7336   -5.1284    0.0000 H   0  0  0  0  0  0  0  0  0  0  0  0
   25.3976   -9.0471    0.0000 H   0  0  0  0  0  0  0  0  0  0  0  0
   22.8080   -8.8374    0.0000 H   0  0  0  0  0  0  0  0  0  0  0  0
   25.0130   -4.1981    0.0000 H   0  0  0  0  0  0  0  0  0  0  0  0
   24.2616   -0.8912    0.0000 H   0  0  0  0  0  0  0  0  0  0  0  0
   26.0589    1.1187    0.0000 H   0  0  0  0  0  0  0  0  0  0  0  0
   24.6696   -0.0012    0.0000 H   0  0  0  0  0  0  0  0  0  0  0  0
   29.0658   -0.6185    0.0000 H   0  0  0  0  0  0  0  0  0  0  0  0
   28.0373   -1.6788    0.0000 H   0  0  0  0  0  0  0  0  0  0  0  0
   28.3606    2.6190    0.0000 H   0  0  0  0  0  0  0  0  0  0  0  0
   26.8452    1.6768    0.0000 H   0  0  0  0  0  0  0  0  0  0  0  0
   30.6012    0.0411    0.0000 H   0  0  0  0  0  0  0  0  0  0  0  0
   32.4766    4.1317    0.0000 H   0  0  0  0  0  0  0  0  0  0  0  0
   32.7198    1.5450    0.0000 H   0  0  0  0  0  0  0  0  0  0  0  0
   30.1149    5.2145    0.0000 H   0  0  0  0  0  0  0  0  0  0  0  0
   27.9964    3.7106    0.0000 H   0  0  0  0  0  0  0  0  0  0  0  0
  1  2  1  0
  2  3  1  0
  3  4  1  0
  4  5  2  0
  4  6  1  0
  6  7  1  0
  7  8  1  0
  8  9  1  0
  8 10  1  0
  7 11  1  0
 11 12  2  0
 11 13  1  0
 13 14  1  0
 14 15  1  0
 15 16  1  0
 16 17  1  0
 17 18  1  0
 18 19  1  0
 19 20  2  3
 19 21  1  0
 14 22  1  0
 22 23  2  0
 22 24  1  0
 24 25  1  0
 25 26  1  0
 26 27  1  0
 27 28  1  0
 28 29  1  0
 28 30  2  0
 25 31  1  0
 31 32  2  0
 31 33  1  0
 34 33  1  6
 34 35  1  0
 35 36  1  0
 36 37  1  0
 37 38  1  0
 34 39  1  0
 34 40  1  0
 40 41  2  0
 40 42  1  0
 42 43  1  0
 43 44  1  0
 44 45  1  0
 45 46  1  0
 46 47  1  0
 47 48  1  0
 48 49  2  3
 48 50  1  0
 43 51  1  0
 51 52  2  0
 51 53  1  0
 53 54  1  0
 54 55  1  0
 55 56  1  0
 56 57  1  0
 57 58  1  0
 58 59  1  0
 59 60  2  3
 59 61  1  0
 54 62  1  0
 62 63  2  0
 62 64  1  0
 64 65  1  0
 65 66  1  0
 66 67  1  0
 67 68  1  0
 68 69  1  0
 68 70  2  0
 65 71  1  0
 71 72  2  0
 71 73  1  0
 73 74  1  0
 74 75  1  0
 75 76  1  0
 76 77  1  0
 77 78  1  0
 74 79  1  0
 74 80  1  6
 80 81  2  0
 80 82  1  0
 82 83  1  0
 83 84  1  0
 84 85  1  0
 85 86  1  0
 86 87  1  0
 87 88  1  0
 88 89  2  3
 88 90  1  0
 83 91  1  0
 91 92  2  0
 91 93  1  0
 93 94  1  0
 94 95  1  0
 95 96  1  0
 96 97  1  0
 97 98  1  0
 98 99  1  0
 99100  2  3
 99101  1  0
 94102  1  0
102103  2  0
102104  1  0
104105  1  0
105106  1  0
106107  1  0
107108  1  0
108109  1  0
109110  1  0
110111  2  3
110112  1  0
105113  1  0
113114  2  0
113115  1  0
115116  1  0
116117  1  0
117118  1  0
118119  2  0
119120  1  0
120121  1  0
121122  2  0
122123  1  0
123124  2  0
124125  1  0
125126  2  0
116127  1  0
127128  2  0
127129  1  0
129130  1  0
130131  1  0
131132  1  0
132133  1  0
133134  1  0
134135  1  0
135136  2  3
135137  1  0
130138  1  0
138139  2  0
138140  1  0
140141  1  0
141142  1  0
142143  1  0
143144  1  0
144145  2  0
144146  1  0
141147  1  0
147148  2  0
147149  1  0
149150  1  0
150151  1  0
151152  1  0
152153  1  0
153154  1  0
154155  1  0
155156  2  3
155157  1  0
150158  1  0
158159  2  0
158160  1  0
160161  1  0
161162  1  0
162163  1  0
163164  1  0
164165  1  0
164166  2  0
161167  1  0
167168  2  0
167169  1  0
169170  1  0
170171  1  0
171172  1  0
172173  1  0
173174  1  0
174175  1  0
175176  2  3
175177  1  0
170178  1  0
178179  2  0
178180  1  0
126118  1  0
126121  1  0
 38 78  2  0
  1181  1  0
  1182  1  0
  2183  1  0
  2184  1  0
  3185  1  0
  3186  1  0
  6187  1  0
  7188  1  6
  8189  1  1
  9190  1  0
 10191  1  0
 10192  1  0
 10193  1  0
 13194  1  0
 14195  1  1
 15196  1  0
 15197  1  0
 16198  1  0
 16199  1  0
 17200  1  0
 17201  1  0
 18202  1  0
 20203  1  0
 20204  1  0
 21205  1  0
 21206  1  0
 24207  1  0
 25208  1  6
 26209  1  0
 26210  1  0
 27211  1  0
 27212  1  0
 29213  1  0
 29214  1  0
 33215  1  0
 35216  1  0
 35217  1  0
 36218  1  0
 36219  1  0
 37220  1  0
 37221  1  0
 38222  1  0
 39223  1  0
 39224  1  0
 39225  1  0
 42226  1  0
 43227  1  1
 44228  1  0
 44229  1  0
 45230  1  0
 45231  1  0
 46232  1  0
 46233  1  0
 47234  1  0
 49235  1  0
 49236  1  0
 50237  1  0
 50238  1  0
 53239  1  0
 54240  1  1
 55241  1  0
 55242  1  0
 56243  1  0
 56244  1  0
 57245  1  0
 57246  1  0
 58247  1  0
 60248  1  0
 60249  1  0
 61250  1  0
 61251  1  0
 64252  1  0
 65253  1  1
 66254  1  0
 66255  1  0
 67256  1  0
 67257  1  0
 69258  1  0
 69259  1  0
 73260  1  0
 75261  1  0
 75262  1  0
 76263  1  0
 76264  1  0
 77265  1  0
 77266  1  0
 78267  1  0
 79268  1  0
 79269  1  0
 79270  1  0
 82271  1  0
 83272  1  1
 84273  1  0
 84274  1  0
 85275  1  0
 85276  1  0
 86277  1  0
 86278  1  0
 87279  1  0
 89280  1  0
 89281  1  0
 90282  1  0
 90283  1  0
 93284  1  0
 94285  1  1
 95286  1  0
 95287  1  0
 96288  1  0
 96289  1  0
 97290  1  0
 97291  1  0
 98292  1  0
100293  1  0
100294  1  0
101295  1  0
101296  1  0
104297  1  0
105298  1  6
106299  1  0
106300  1  0
107301  1  0
107302  1  0
108303  1  0
108304  1  0
109305  1  0
111306  1  0
111307  1  0
112308  1  0
112309  1  0
115310  1  0
116311  1  6
117312  1  0
117313  1  0
119314  1  0
120315  1  0
122316  1  0
123317  1  0
124318  1  0
125319  1  0
129320  1  0
130321  1  1
131322  1  0
131323  1  0
132324  1  0
132325  1  0
133326  1  0
133327  1  0
134328  1  0
136329  1  0
136330  1  0
137331  1  0
137332  1  0
140333  1  0
141334  1  1
142335  1  0
142336  1  0
143337  1  0
143338  1  0
149339  1  0
150340  1  6
151341  1  0
151342  1  0
152343  1  0
152344  1  0
153345  1  0
153346  1  0
154347  1  0
156348  1  0
156349  1  0
157350  1  0
157351  1  0
160352  1  0
161353  1  6
162354  1  0
162355  1  0
163356  1  0
163357  1  0
165358  1  0
165359  1  0
169360  1  0
170361  1  1
171362  1  0
171363  1  0
172364  1  0
172365  1  0
173366  1  0
173367  1  0
174368  1  0
176369  1  0
176370  1  0
177371  1  0
177372  1  0
M  CHG  8  20   1  49   1  60   1  89   1 100   1 111   1 136   1 146  -1
M  CHG  3 156   1 176   1 180  -1
M  END
