
     RDKit          2D

283284  0  0  0  0  0  0  0  0999 V2000
  -29.1167  -10.6947    0.0000 N   0  0  0  0  0  0  0  0  0  0  0  0
  -27.6229  -10.5577    0.0000 C   0  0  0  0  0  0  0  0  0  0  0  0
  -26.9947   -9.1956    0.0000 C   0  0  0  0  0  0  0  0  0  0  0  0
  -25.5009   -9.0587    0.0000 O   0  0  0  0  0  0  0  0  0  0  0  0
  -24.8727   -7.6966    0.0000 C   0  0  0  0  0  0  0  0  0  0  0  0
  -23.3789   -7.5597    0.0000 C   0  0  0  0  0  0  0  0  0  0  0  0
  -22.7506   -6.1976    0.0000 O   0  0  0  0  0  0  0  0  0  0  0  0
  -21.2569   -6.0606    0.0000 C   0  0  0  0  0  0  0  0  0  0  0  0
  -20.6286   -4.6985    0.0000 C   0  0  0  0  0  0  0  0  0  0  0  0
  -19.1349   -4.5616    0.0000 N   0  0  0  0  0  0  0  0  0  0  0  0
  -18.5066   -3.1995    0.0000 C   0  0  0  0  0  0  0  0  0  0  0  0
  -19.3721   -1.9744    0.0000 O   0  0  0  0  0  0  0  0  0  0  0  0
  -17.0129   -3.0625    0.0000 C   0  0  0  0  0  0  0  0  0  0  0  0
  -16.3846   -1.7005    0.0000 C   0  0  0  0  0  0  0  0  0  0  0  0
  -14.8909   -1.5635    0.0000 C   0  0  0  0  0  0  0  0  0  0  0  0
  -14.1812   -2.8850    0.0000 O   0  0  0  0  0  0  0  0  0  0  0  0
  -14.2626   -0.2014    0.0000 N   0  0  0  0  0  0  0  0  0  0  0  0
  -12.7689   -0.0645    0.0000 C   0  0  0  0  0  0  0  0  0  0  0  0
  -13.1632    1.3828    0.0000 C   0  0  0  0  0  0  0  0  0  0  0  0
  -14.6494    1.5853    0.0000 C   0  0  0  0  0  0  0  0  0  0  0  0
  -13.0386    2.8776    0.0000 C   0  0  0  0  0  0  0  0  0  0  0  0
  -14.2709    3.7329    0.0000 C   0  0  0  0  0  0  0  0  0  0  0  0
  -11.3184   -0.4467    0.0000 C   0  0  0  0  0  0  0  0  0  0  0  0
  -10.2622    0.6184    0.0000 O   0  0  0  0  0  0  0  0  0  0  0  0
  -10.9242   -1.8939    0.0000 N   0  0  0  0  0  0  0  0  0  0  0  0
   -9.4737   -2.2761    0.0000 C   0  0  0  0  0  0  0  0  0  0  0  0
  -10.1019   -3.6382    0.0000 C   0  0  0  0  0  0  0  0  0  0  0  0
  -11.5957   -3.7752    0.0000 C   0  0  0  0  0  0  0  0  0  0  0  0
  -12.2239   -5.1373    0.0000 C   0  0  0  0  0  0  0  0  0  0  0  0
  -13.0462   -3.3930    0.0000 C   0  0  0  0  0  0  0  0  0  0  0  0
   -7.9799   -2.1392    0.0000 C   0  0  0  0  0  0  0  0  0  0  0  0
   -7.2703   -3.4607    0.0000 O   0  0  0  0  0  0  0  0  0  0  0  0
   -7.3517   -0.7771    0.0000 N   0  0  0  0  0  0  0  0  0  0  0  0
   -5.8579   -0.6402    0.0000 C   0  0  0  0  0  0  0  0  0  0  0  0
   -4.8443   -1.7459    0.0000 C   0  0  0  0  0  0  0  0  0  0  0  0
   -3.6398   -2.6398    0.0000 C   0  0  0  0  0  0  0  0  0  0  0  0
   -2.2878   -3.2896    0.0000 C   0  0  0  0  0  0  0  0  0  0  0  0
   -0.8374   -3.6718    0.0000 C   0  0  0  0  0  0  0  0  0  0  0  0
    0.6593   -3.7726    0.0000 C   0  0  0  0  0  0  0  0  0  0  0  0
    2.1479   -3.5883    0.0000 C   0  0  0  0  0  0  0  0  0  0  0  0
    3.5748   -3.1256    0.0000 C   0  0  0  0  0  0  0  0  0  0  0  0
   -6.5651   -1.9630    0.0000 C   0  0  0  0  0  0  0  0  0  0  0  0
   -6.6440    0.6374    0.0000 C   0  0  0  0  0  0  0  0  0  0  0  0
   -8.0610    0.1455    0.0000 O   0  0  0  0  0  0  0  0  0  0  0  0
   -7.1740    2.0406    0.0000 N   0  0  0  0  0  0  0  0  0  0  0  0
   -7.4289    3.5188    0.0000 C   0  0  0  0  0  0  0  0  0  0  0  0
   -8.6401    2.6340    0.0000 C   0  0  0  0  0  0  0  0  0  0  0  0
  -10.0120    3.2406    0.0000 C   0  0  0  0  0  0  0  0  0  0  0  0
  -11.2233    2.3558    0.0000 S   0  0  0  0  0  0  0  0  0  0  0  0
  -11.0626    0.8644    0.0000 C   0  0  0  0  0  0  0  0  0  0  0  0
   -7.3994    5.0185    0.0000 C   0  0  0  0  0  0  0  0  0  0  0  0
   -8.8575    5.3708    0.0000 O   0  0  0  0  0  0  0  0  0  0  0  0
   -7.0867    6.4856    0.0000 N   0  0  0  0  0  0  0  0  0  0  0  0
   -6.5020    7.8669    0.0000 C   0  0  0  0  0  0  0  0  0  0  0  0
   -7.9993    7.7774    0.0000 C   0  0  0  0  0  0  0  0  0  0  0  0
   -5.6664    9.1126    0.0000 C   0  0  0  0  0  0  0  0  0  0  0  0
   -6.8270   10.0628    0.0000 O   0  0  0  0  0  0  0  0  0  0  0  0
   -4.6101   10.1777    0.0000 N   0  0  0  0  0  0  0  0  0  0  0  0
   -3.3714   11.0236    0.0000 C   0  0  0  0  0  0  0  0  0  0  0  0
   -4.6794   11.7578    0.0000 C   0  0  0  0  0  0  0  0  0  0  0  0
   -4.6976   13.2577    0.0000 C   0  0  0  0  0  0  0  0  0  0  0  0
   -1.9950   11.6198    0.0000 C   0  0  0  0  0  0  0  0  0  0  0  0
   -2.2803   13.0924    0.0000 O   0  0  0  0  0  0  0  0  0  0  0  0
   -0.5306   11.9448    0.0000 N   0  0  0  0  0  0  0  0  0  0  0  0
    0.9688   11.9867    0.0000 C   0  0  0  0  0  0  0  0  0  0  0  0
    0.2654   13.3115    0.0000 C   0  0  0  0  0  0  0  0  0  0  0  0
    1.0610   14.5831    0.0000 O   0  0  0  0  0  0  0  0  0  0  0  0
    2.4491   11.7441    0.0000 C   0  0  0  0  0  0  0  0  0  0  0  0
    2.8313   13.1946    0.0000 O   0  0  0  0  0  0  0  0  0  0  0  0
    3.8567   11.2258    0.0000 N   0  0  0  0  0  0  0  0  0  0  0  0
    5.1407   10.4504    0.0000 C   0  0  0  0  0  0  0  0  0  0  0  0
    5.2652   11.9452    0.0000 C   0  0  0  0  0  0  0  0  0  0  0  0
    6.6220   12.5848    0.0000 C   0  0  0  0  0  0  0  0  0  0  0  0
    6.9021   14.0584    0.0000 C   0  0  0  0  0  0  0  0  0  0  0  0
    8.3902   14.2474    0.0000 N   0  0  0  0  0  0  0  0  0  0  0  0
    9.0298   12.8906    0.0000 C   0  0  0  0  0  0  0  0  0  0  0  0
    7.9370   11.8630    0.0000 N   0  0  0  0  0  0  0  0  0  0  0  0
    6.2548    9.4460    0.0000 C   0  0  0  0  0  0  0  0  0  0  0  0
    7.3605   10.4596    0.0000 O   0  0  0  0  0  0  0  0  0  0  0  0
    7.1587    8.2490    0.0000 N   0  0  0  0  0  0  0  0  0  0  0  0
    7.8198    6.9025    0.0000 C   0  0  0  0  0  0  0  0  0  0  0  0
    8.7327    8.0927    0.0000 C   0  0  0  0  0  0  0  0  0  0  0  0
   10.2199    7.8972    0.0000 C   0  0  0  0  0  0  0  0  0  0  0  0
   11.1328    9.0874    0.0000 S   0  0  0  0  0  0  0  0  0  0  0  0
   12.6200    8.8919    0.0000 C   0  0  0  0  0  0  0  0  0  0  0  0
    8.2140    5.4552    0.0000 C   0  0  0  0  0  0  0  0  0  0  0  0
    9.7122    5.5280    0.0000 O   0  0  0  0  0  0  0  0  0  0  0  0
    8.3272    3.9595    0.0000 N   0  0  0  0  0  0  0  0  0  0  0  0
    8.1554    2.4694    0.0000 C   0  0  0  0  0  0  0  0  0  0  0  0
    7.7046    1.0387    0.0000 C   0  0  0  0  0  0  0  0  0  0  0  0
    6.9912   -0.2808    0.0000 C   0  0  0  0  0  0  0  0  0  0  0  0
    6.0410   -1.4414    0.0000 C   0  0  0  0  0  0  0  0  0  0  0  0
    4.8883   -2.4013    0.0000 C   0  0  0  0  0  0  0  0  0  0  0  0
    9.3557    1.5698    0.0000 C   0  0  0  0  0  0  0  0  0  0  0  0
    9.5668    2.9771    0.0000 C   0  0  0  0  0  0  0  0  0  0  0  0
   10.0108    4.4099    0.0000 O   0  0  0  0  0  0  0  0  0  0  0  0
   10.7122    2.0086    0.0000 N   0  0  0  0  0  0  0  0  0  0  0  0
   12.1237    2.5163    0.0000 C   0  0  0  0  0  0  0  0  0  0  0  0
   13.2764    3.4761    0.0000 C   0  0  0  0  0  0  0  0  0  0  0  0
   14.7367    3.1332    0.0000 O   0  0  0  0  0  0  0  0  0  0  0  0
   13.2691    1.5478    0.0000 C   0  0  0  0  0  0  0  0  0  0  0  0
   14.7320    1.8796    0.0000 O   0  0  0  0  0  0  0  0  0  0  0  0
   13.0031    0.0715    0.0000 N   0  0  0  0  0  0  0  0  0  0  0  0
   14.1485   -0.8970    0.0000 C   0  0  0  0  0  0  0  0  0  0  0  0
   15.5561   -1.4153    0.0000 C   0  0  0  0  0  0  0  0  0  0  0  0
   16.7088   -0.4555    0.0000 C   0  0  0  0  0  0  0  0  0  0  0  0
   18.1164   -0.9738    0.0000 C   0  0  0  0  0  0  0  0  0  0  0  0
   17.4637    0.8407    0.0000 C   0  0  0  0  0  0  0  0  0  0  0  0
   13.8825   -2.3732    0.0000 C   0  0  0  0  0  0  0  0  0  0  0  0
   12.4710   -2.8809    0.0000 O   0  0  0  0  0  0  0  0  0  0  0  0
   15.0279   -3.3417    0.0000 N   0  0  0  0  0  0  0  0  0  0  0  0
   14.7618   -4.8179    0.0000 C   0  0  0  0  0  0  0  0  0  0  0  0
   14.0069   -6.1141    0.0000 C   0  0  0  0  0  0  0  0  0  0  0  0
   14.7520   -7.4160    0.0000 C   0  0  0  0  0  0  0  0  0  0  0  0
   13.9971   -8.7122    0.0000 C   0  0  0  0  0  0  0  0  0  0  0  0
   14.7422  -10.0140    0.0000 N   0  0  0  0  0  0  0  0  0  0  0  0
   13.9873  -11.3102    0.0000 C   0  0  0  0  0  0  0  0  0  0  0  0
   14.8856  -12.5116    0.0000 N   0  0  0  0  0  0  0  0  0  0  0  0
   12.4873  -11.3046    0.0000 N   0  0  0  0  0  0  0  0  0  0  0  0
   15.9073   -5.7864    0.0000 C   0  0  0  0  0  0  0  0  0  0  0  0
   17.3187   -5.2787    0.0000 O   0  0  0  0  0  0  0  0  0  0  0  0
   15.6412   -7.2626    0.0000 N   0  0  0  0  0  0  0  0  0  0  0  0
   16.7866   -8.2312    0.0000 C   0  0  0  0  0  0  0  0  0  0  0  0
   16.5206   -9.7074    0.0000 C   0  0  0  0  0  0  0  0  0  0  0  0
   15.6118  -10.3155    0.0000 O   0  0  0  0  0  0  0  0  0  0  0  0
   17.6660  -10.6759    0.0000 N   0  0  0  0  0  0  0  0  0  0  0  0
   17.4000  -12.1521    0.0000 C   0  0  0  0  0  0  0  0  0  0  0  0
   16.6451  -13.4483    0.0000 C   0  0  0  0  0  0  0  0  0  0  0  0
   15.4924  -14.4081    0.0000 O   0  0  0  0  0  0  0  0  0  0  0  0
   17.3902  -14.7502    0.0000 C   0  0  0  0  0  0  0  0  0  0  0  0
   18.5454  -13.1206    0.0000 C   0  0  0  0  0  0  0  0  0  0  0  0
   18.4613  -14.6183    0.0000 O   0  0  0  0  0  0  0  0  0  0  0  0
   19.9568  -12.6129    0.0000 O   0  0  0  0  0  0  0  0  0  0  0  0
  -29.7449  -12.0568    0.0000 H   0  0  0  0  0  0  0  0  0  0  0  0
  -29.9821   -9.4695    0.0000 H   0  0  0  0  0  0  0  0  0  0  0  0
  -27.7474  -12.0525    0.0000 H   0  0  0  0  0  0  0  0  0  0  0  0
  -26.1724  -10.9399    0.0000 H   0  0  0  0  0  0  0  0  0  0  0  0
  -28.4451   -8.8134    0.0000 H   0  0  0  0  0  0  0  0  0  0  0  0
  -27.0533   -7.6968    0.0000 H   0  0  0  0  0  0  0  0  0  0  0  0
  -26.2657   -7.1404    0.0000 H   0  0  0  0  0  0  0  0  0  0  0  0
  -24.7481   -6.2018    0.0000 H   0  0  0  0  0  0  0  0  0  0  0  0
  -23.5034   -9.0545    0.0000 H   0  0  0  0  0  0  0  0  0  0  0  0
  -21.9858   -8.1158    0.0000 H   0  0  0  0  0  0  0  0  0  0  0  0
  -21.1983   -7.5595    0.0000 H   0  0  0  0  0  0  0  0  0  0  0  0
  -19.8064   -6.4428    0.0000 H   0  0  0  0  0  0  0  0  0  0  0  0
  -22.0791   -4.3163    0.0000 H   0  0  0  0  0  0  0  0  0  0  0  0
  -20.5041   -3.2037    0.0000 H   0  0  0  0  0  0  0  0  0  0  0  0
  -18.2694   -5.7867    0.0000 H   0  0  0  0  0  0  0  0  0  0  0  0
  -17.1374   -4.5574    0.0000 H   0  0  0  0  0  0  0  0  0  0  0  0
  -15.5624   -3.4447    0.0000 H   0  0  0  0  0  0  0  0  0  0  0  0
  -17.8351   -1.3183    0.0000 H   0  0  0  0  0  0  0  0  0  0  0  0
  -16.2601   -0.2056    0.0000 H   0  0  0  0  0  0  0  0  0  0  0  0
  -14.7985    0.3887    0.0000 H   0  0  0  0  0  0  0  0  0  0  0  0
  -13.0747   -1.5330    0.0000 H   0  0  0  0  0  0  0  0  0  0  0  0
  -11.6694    1.5197    0.0000 H   0  0  0  0  0  0  0  0  0  0  0  0
  -15.2035    3.1564    0.0000 H   0  0  0  0  0  0  0  0  0  0  0  0
  -16.1074    1.6280    0.0000 H   0  0  0  0  0  0  0  0  0  0  0  0
  -15.0133    0.8937    0.0000 H   0  0  0  0  0  0  0  0  0  0  0  0
  -12.4104    4.2397    0.0000 H   0  0  0  0  0  0  0  0  0  0  0  0
  -11.7237    2.1558    0.0000 H   0  0  0  0  0  0  0  0  0  0  0  0
  -14.1464    5.2277    0.0000 H   0  0  0  0  0  0  0  0  0  0  0  0
  -15.7214    4.1151    0.0000 H   0  0  0  0  0  0  0  0  0  0  0  0
  -15.2101    2.5633    0.0000 H   0  0  0  0  0  0  0  0  0  0  0  0
  -12.1024   -2.8223    0.0000 H   0  0  0  0  0  0  0  0  0  0  0  0
   -9.3492   -0.7813    0.0000 H   0  0  0  0  0  0  0  0  0  0  0  0
  -10.0433   -5.1371    0.0000 H   0  0  0  0  0  0  0  0  0  0  0  0
   -8.6514   -4.0204    0.0000 H   0  0  0  0  0  0  0  0  0  0  0  0
  -12.0152   -2.3350    0.0000 H   0  0  0  0  0  0  0  0  0  0  0  0
  -13.6898   -5.4553    0.0000 H   0  0  0  0  0  0  0  0  0  0  0  0
  -12.3485   -6.6321    0.0000 H   0  0  0  0  0  0  0  0  0  0  0  0
  -10.8309   -5.6934    0.0000 H   0  0  0  0  0  0  0  0  0  0  0  0
  -13.6139   -2.0046    0.0000 H   0  0  0  0  0  0  0  0  0  0  0  0
  -14.5121   -3.7110    0.0000 H   0  0  0  0  0  0  0  0  0  0  0  0
  -13.3520   -4.8615    0.0000 H   0  0  0  0  0  0  0  0  0  0  0  0
   -8.3600    0.3334    0.0000 H   0  0  0  0  0  0  0  0  0  0  0  0
   -5.2883   -3.1787    0.0000 H   0  0  0  0  0  0  0  0  0  0  0  0
   -6.2236   -2.3356    0.0000 H   0  0  0  0  0  0  0  0  0  0  0  0
   -3.8046   -4.1307    0.0000 H   0  0  0  0  0  0  0  0  0  0  0  0
   -4.8825   -3.4798    0.0000 H   0  0  0  0  0  0  0  0  0  0  0  0
   -2.1675   -4.7848    0.0000 H   0  0  0  0  0  0  0  0  0  0  0  0
   -3.3491   -4.3496    0.0000 H   0  0  0  0  0  0  0  0  0  0  0  0
   -0.4363   -5.1172    0.0000 H   0  0  0  0  0  0  0  0  0  0  0  0
   -1.6788   -4.9135    0.0000 H   0  0  0  0  0  0  0  0  0  0  0  0
    1.3266   -5.1159    0.0000 H   0  0  0  0  0  0  0  0  0  0  0  0
    0.0680   -5.1511    0.0000 H   0  0  0  0  0  0  0  0  0  0  0  0
    3.1961   -4.6613    0.0000 H   0  0  0  0  0  0  0  0  0  0  0  0
    1.8282   -5.0538    0.0000 H   0  0  0  0  0  0  0  0  0  0  0  0
    4.1710   -4.5020    0.0000 H   0  0  0  0  0  0  0  0  0  0  0  0
   -7.7670   -2.5799    0.0000 H   0  0  0  0  0  0  0  0  0  0  0  0
   -6.2369   -3.5106    0.0000 H   0  0  0  0  0  0  0  0  0  0  0  0
   -5.0639   -2.7143    0.0000 H   0  0  0  0  0  0  0  0  0  0  0  0
   -8.5624    1.4729    0.0000 H   0  0  0  0  0  0  0  0  0  0  0  0
   -8.6652    4.3682    0.0000 H   0  0  0  0  0  0  0  0  0  0  0  0
   -9.4757    1.3883    0.0000 H   0  0  0  0  0  0  0  0  0  0  0  0
   -7.8421    1.3640    0.0000 H   0  0  0  0  0  0  0  0  0  0  0  0
  -11.0937    4.2798    0.0000 H   0  0  0  0  0  0  0  0  0  0  0  0
   -9.5027    4.6515    0.0000 H   0  0  0  0  0  0  0  0  0  0  0  0
  -12.4520    0.2990    0.0000 H   0  0  0  0  0  0  0  0  0  0  0  0
  -10.4016   -0.4821    0.0000 H   0  0  0  0  0  0  0  0  0  0  0  0
   -9.5817    1.1029    0.0000 H   0  0  0  0  0  0  0  0  0  0  0  0
   -8.5616    6.7586    0.0000 H   0  0  0  0  0  0  0  0  0  0  0  0
   -7.2470    9.1688    0.0000 H   0  0  0  0  0  0  0  0  0  0  0  0
   -8.8254    9.0294    0.0000 H   0  0  0  0  0  0  0  0  0  0  0  0
   -9.4381    7.3534    0.0000 H   0  0  0  0  0  0  0  0  0  0  0  0
   -8.0145    6.2775    0.0000 H   0  0  0  0  0  0  0  0  0  0  0  0
   -5.7033   11.2048    0.0000 H   0  0  0  0  0  0  0  0  0  0  0  0
   -3.1124   12.5011    0.0000 H   0  0  0  0  0  0  0  0  0  0  0  0
   -6.1191   12.1791    0.0000 H   0  0  0  0  0  0  0  0  0  0  0  0
   -5.5032   10.5043    0.0000 H   0  0  0  0  0  0  0  0  0  0  0  0
   -6.0056   13.9920    0.0000 H   0  0  0  0  0  0  0  0  0  0  0  0
   -4.2016   14.6734    0.0000 H   0  0  0  0  0  0  0  0  0  0  0  0
   -3.2026   13.3805    0.0000 H   0  0  0  0  0  0  0  0  0  0  0  0
   -0.8950   13.3998    0.0000 H   0  0  0  0  0  0  0  0  0  0  0  0
    1.8435   13.2053    0.0000 H   0  0  0  0  0  0  0  0  0  0  0  0
   -0.7180   14.4442    0.0000 H   0  0  0  0  0  0  0  0  0  0  0  0
   -1.1053   12.7023    0.0000 H   0  0  0  0  0  0  0  0  0  0  0  0
    0.3576   15.9080    0.0000 H   0  0  0  0  0  0  0  0  0  0  0  0
    4.3368   12.6468    0.0000 H   0  0  0  0  0  0  0  0  0  0  0  0
    6.5354   11.0026    0.0000 H   0  0  0  0  0  0  0  0  0  0  0  0
    5.0503   13.4297    0.0000 H   0  0  0  0  0  0  0  0  0  0  0  0
    3.7827   12.1738    0.0000 H   0  0  0  0  0  0  0  0  0  0  0  0
    5.8746   15.1512    0.0000 H   0  0  0  0  0  0  0  0  0  0  0  0
    9.1119   15.5623    0.0000 H   0  0  0  0  0  0  0  0  0  0  0  0
   10.5034   12.6105    0.0000 H   0  0  0  0  0  0  0  0  0  0  0  0
    8.3310    9.1848    0.0000 H   0  0  0  0  0  0  0  0  0  0  0  0
    9.2453    6.4358    0.0000 H   0  0  0  0  0  0  0  0  0  0  0  0
    9.3545    9.4577    0.0000 H   0  0  0  0  0  0  0  0  0  0  0  0
    7.6091    9.0864    0.0000 H   0  0  0  0  0  0  0  0  0  0  0  0
   11.4562    7.0478    0.0000 H   0  0  0  0  0  0  0  0  0  0  0  0
   10.1287    6.3999    0.0000 H   0  0  0  0  0  0  0  0  0  0  0  0
   13.5329   10.0821    0.0000 H   0  0  0  0  0  0  0  0  0  0  0  0
   13.9506    8.1995    0.0000 H   0  0  0  0  0  0  0  0  0  0  0  0
   12.3470    7.4169    0.0000 H   0  0  0  0  0  0  0  0  0  0  0  0
    9.8194    4.1131    0.0000 H   0  0  0  0  0  0  0  0  0  0  0  0
    9.2038    1.0877    0.0000 H   0  0  0  0  0  0  0  0  0  0  0  0
    8.5700   -0.1864    0.0000 H   0  0  0  0  0  0  0  0  0  0  0  0
    8.4328   -0.6952    0.0000 H   0  0  0  0  0  0  0  0  0  0  0  0
    7.7712   -1.5621    0.0000 H   0  0  0  0  0  0  0  0  0  0  0  0
    7.4510   -1.9531    0.0000 H   0  0  0  0  0  0  0  0  0  0  0  0
    6.3891   -2.9005    0.0000 H   0  0  0  0  0  0  0  0  0  0  0  0
    5.7342   -3.6400    0.0000 H   0  0  0  0  0  0  0  0  0  0  0  0
    9.2783   -0.0944    0.0000 H   0  0  0  0  0  0  0  0  0  0  0  0
   10.5086    0.6764    0.0000 H   0  0  0  0  0  0  0  0  0  0  0  0
   10.3190    2.4695    0.0000 H   0  0  0  0  0  0  0  0  0  0  0  0
   10.6281    0.5109    0.0000 H   0  0  0  0  0  0  0  0  0  0  0  0
   11.3786    3.8181    0.0000 H   0  0  0  0  0  0  0  0  0  0  0  0
   14.0313    4.7723    0.0000 H   0  0  0  0  0  0  0  0  0  0  0  0
   12.1310    4.4446    0.0000 H   0  0  0  0  0  0  0  0  0  0  0  0
   15.8367    3.9176    0.0000 H   0  0  0  0  0  0  0  0  0  0  0  0
   11.5916   -0.4362    0.0000 H   0  0  0  0  0  0  0  0  0  0  0  0
   14.7398    0.4816    0.0000 H   0  0  0  0  0  0  0  0  0  0  0  0
   16.7015   -2.3838    0.0000 H   0  0  0  0  0  0  0  0  0  0  0  0
   15.1373   -2.8557    0.0000 H   0  0  0  0  0  0  0  0  0  0  0  0
   15.6900    0.6454    0.0000 H   0  0  0  0  0  0  0  0  0  0  0  0
   19.3775   -0.1617    0.0000 H   0  0  0  0  0  0  0  0  0  0  0  0
   19.2618   -1.9423    0.0000 H   0  0  0  0  0  0  0  0  0  0  0  0
   17.5251   -2.3524    0.0000 H   0  0  0  0  0  0  0  0  0  0  0  0
   18.9532    1.0179    0.0000 H   0  0  0  0  0  0  0  0  0  0  0  0
   17.7297    2.3169    0.0000 H   0  0  0  0  0  0  0  0  0  0  0  0
   16.0561    1.3591    0.0000 H   0  0  0  0  0  0  0  0  0  0  0  0
   16.4907   -3.0098    0.0000 H   0  0  0  0  0  0  0  0  0  0  0  0
   13.3542   -4.2996    0.0000 H   0  0  0  0  0  0  0  0  0  0  0  0
   12.7458   -6.9263    0.0000 H   0  0  0  0  0  0  0  0  0  0  0  0
   12.8615   -5.1456    0.0000 H   0  0  0  0  0  0  0  0  0  0  0  0
   15.8975   -8.3845    0.0000 H   0  0  0  0  0  0  0  0  0  0  0  0
   16.2205   -7.1098    0.0000 H   0  0  0  0  0  0  0  0  0  0  0  0
   12.8444   -9.6720    0.0000 H   0  0  0  0  0  0  0  0  0  0  0  0
   12.7422   -7.8905    0.0000 H   0  0  0  0  0  0  0  0  0  0  0  0
   16.1963  -10.3825    0.0000 H   0  0  0  0  0  0  0  0  0  0  0  0
   13.9775  -13.9083    0.0000 H   0  0  0  0  0  0  0  0  0  0  0  0
   16.2353  -12.4528    0.0000 H   0  0  0  0  0  0  0  0  0  0  0  0
   11.7324  -12.6008    0.0000 H   0  0  0  0  0  0  0  0  0  0  0  0
   11.7422  -10.0027    0.0000 H   0  0  0  0  0  0  0  0  0  0  0  0
   14.3945   -8.0968    0.0000 H   0  0  0  0  0  0  0  0  0  0  0  0
   18.1942   -8.7495    0.0000 H   0  0  0  0  0  0  0  0  0  0  0  0
   17.5415   -6.9350    0.0000 H   0  0  0  0  0  0  0  0  0  0  0  0
   19.0775  -10.1682    0.0000 H   0  0  0  0  0  0  0  0  0  0  0  0
   15.9924  -11.6338    0.0000 H   0  0  0  0  0  0  0  0  0  0  0  0
   15.7680  -12.2314    0.0000 H   0  0  0  0  0  0  0  0  0  0  0  0
   15.5652  -15.9064    0.0000 H   0  0  0  0  0  0  0  0  0  0  0  0
   16.7989  -16.1287    0.0000 H   0  0  0  0  0  0  0  0  0  0  0  0
   18.5356  -15.7187    0.0000 H   0  0  0  0  0  0  0  0  0  0  0  0
   18.8103  -14.2673    0.0000 H   0  0  0  0  0  0  0  0  0  0  0  0
  1  2  1  0
  2  3  1  0
  3  4  1  0
  4  5  1  0
  5  6  1  0
  6  7  1  0
  7  8  1  0
  8  9  1  0
  9 10  1  0
 10 11  1  0
 11 12  2  0
 11 13  1  0
 13 14  1  0
 14 15  1  0
 15 16  2  0
 15 17  1  0
 17 18  1  0
 18 19  1  0
 19 20  1  0
 19 21  1  0
 21 22  1  0
 18 23  1  0
 23 24  2  0
 23 25  1  0
 25 26  1  0
 26 27  1  0
 27 28  1  0
 28 29  1  0
 28 30  1  0
 26 31  1  0
 31 32  2  0
 31 33  1  0
 34 33  1  1
 34 35  1  0
 35 36  1  0
 36 37  1  0
 37 38  1  0
 38 39  1  0
 39 40  1  0
 40 41  1  0
 34 42  1  0
 34 43  1  0
 43 44  2  0
 43 45  1  0
 45 46  1  0
 46 47  1  0
 47 48  1  0
 48 49  1  0
 49 50  1  0
 46 51  1  0
 51 52  2  0
 51 53  1  0
 53 54  1  0
 54 55  1  0
 54 56  1  0
 56 57  2  0
 56 58  1  0
 58 59  1  0
 59 60  1  0
 60 61  1  0
 59 62  1  0
 62 63  2  0
 62 64  1  0
 64 65  1  0
 65 66  1  0
 66 67  1  0
 65 68  1  0
 68 69  2  0
 68 70  1  0
 70 71  1  0
 71 72  1  0
 72 73  1  0
 73 74  2  0
 74 75  1  0
 75 76  1  0
 76 77  2  0
 71 78  1  0
 78 79  2  0
 78 80  1  0
 80 81  1  0
 81 82  1  0
 82 83  1  0
 83 84  1  0
 84 85  1  0
 81 86  1  0
 86 87  2  0
 86 88  1  0
 88 89  1  0
 89 90  1  0
 90 91  1  0
 91 92  1  0
 92 93  1  0
 89 94  1  0
 89 95  1  6
 95 96  2  0
 95 97  1  0
 97 98  1  0
 98 99  1  0
 99100  1  0
 98101  1  0
101102  2  0
101103  1  0
103104  1  0
104105  1  0
105106  1  0
106107  1  0
106108  1  0
104109  1  0
109110  2  0
109111  1  0
111112  1  0
112113  1  0
113114  1  0
114115  1  0
115116  1  0
116117  1  0
117118  2  3
117119  1  0
112120  1  0
120121  2  0
120122  1  0
122123  1  0
123124  1  0
124125  2  0
124126  1  0
126127  1  0
127128  1  0
128129  1  0
128130  1  0
127131  1  0
131132  2  0
131133  1  0
 77 73  1  0
 41 93  2  0
  1134  1  0
  1135  1  0
  2136  1  0
  2137  1  0
  3138  1  0
  3139  1  0
  5140  1  0
  5141  1  0
  6142  1  0
  6143  1  0
  8144  1  0
  8145  1  0
  9146  1  0
  9147  1  0
 10148  1  0
 13149  1  0
 13150  1  0
 14151  1  0
 14152  1  0
 17153  1  0
 18154  1  1
 19155  1  6
 20156  1  0
 20157  1  0
 20158  1  0
 21159  1  0
 21160  1  0
 22161  1  0
 22162  1  0
 22163  1  0
 25164  1  0
 26165  1  6
 27166  1  0
 27167  1  0
 28168  1  0
 29169  1  0
 29170  1  0
 29171  1  0
 30172  1  0
 30173  1  0
 30174  1  0
 33175  1  0
 35176  1  0
 35177  1  0
 36178  1  0
 36179  1  0
 37180  1  0
 37181  1  0
 38182  1  0
 38183  1  0
 39184  1  0
 39185  1  0
 40186  1  0
 40187  1  0
 41188  1  0
 42189  1  0
 42190  1  0
 42191  1  0
 45192  1  0
 46193  1  1
 47194  1  0
 47195  1  0
 48196  1  0
 48197  1  0
 50198  1  0
 50199  1  0
 50200  1  0
 53201  1  0
 54202  1  1
 55203  1  0
 55204  1  0
 55205  1  0
 58206  1  0
 59207  1  1
 60208  1  0
 60209  1  0
 61210  1  0
 61211  1  0
 61212  1  0
 64213  1  0
 65214  1  1
 66215  1  0
 66216  1  0
 67217  1  0
 70218  1  0
 71219  1  1
 72220  1  0
 72221  1  0
 74222  1  0
 75223  1  0
 76224  1  0
 80225  1  0
 81226  1  1
 82227  1  0
 82228  1  0
 83229  1  0
 83230  1  0
 85231  1  0
 85232  1  0
 85233  1  0
 88234  1  0
 90235  1  0
 90236  1  0
 91237  1  0
 91238  1  0
 92239  1  0
 92240  1  0
 93241  1  0
 94242  1  0
 94243  1  0
 94244  1  0
 97245  1  0
 98246  1  1
 99247  1  0
 99248  1  0
100249  1  0
103250  1  0
104251  1  1
105252  1  0
105253  1  0
106254  1  0
107255  1  0
107256  1  0
107257  1  0
108258  1  0
108259  1  0
108260  1  0
111261  1  0
112262  1  6
113263  1  0
113264  1  0
114265  1  0
114266  1  0
115267  1  0
115268  1  0
116269  1  0
118270  1  0
118271  1  0
119272  1  0
119273  1  0
122274  1  0
123275  1  0
123276  1  0
126277  1  0
127278  1  6
128279  1  6
129280  1  0
130281  1  0
130282  1  0
130283  1  0
M  CHG  2 118   1 133  -1
M  END
