
     RDKit          2D

363364  0  0  0  0  0  0  0  0999 V2000
   24.8578    6.8880    0.0000 N   0  0  0  0  0  0  0  0  0  0  0  0
   24.2601    5.5122    0.0000 C   0  0  0  0  0  0  0  0  0  0  0  0
   25.1527    4.3067    0.0000 C   0  0  0  0  0  0  0  0  0  0  0  0
   24.5550    2.9309    0.0000 C   0  0  0  0  0  0  0  0  0  0  0  0
   23.0647    2.7607    0.0000 O   0  0  0  0  0  0  0  0  0  0  0  0
   25.4476    1.7254    0.0000 N   0  0  0  0  0  0  0  0  0  0  0  0
   24.8499    0.3496    0.0000 C   0  0  0  0  0  0  0  0  0  0  0  0
   26.3085   -0.0001    0.0000 C   0  0  0  0  0  0  0  0  0  0  0  0
   27.5596   -0.8276    0.0000 O   0  0  0  0  0  0  0  0  0  0  0  0
   27.3408    1.0883    0.0000 C   0  0  0  0  0  0  0  0  0  0  0  0
   23.8177   -0.7388    0.0000 C   0  0  0  0  0  0  0  0  0  0  0  0
   24.4163   -2.1141    0.0000 O   0  0  0  0  0  0  0  0  0  0  0  0
   22.3590   -0.3890    0.0000 N   0  0  0  0  0  0  0  0  0  0  0  0
   21.3268   -1.4774    0.0000 C   0  0  0  0  0  0  0  0  0  0  0  0
   22.5779   -2.3049    0.0000 C   0  0  0  0  0  0  0  0  0  0  0  0
   22.4868   -3.8022    0.0000 C   0  0  0  0  0  0  0  0  0  0  0  0
   23.7379   -4.6297    0.0000 C   0  0  0  0  0  0  0  0  0  0  0  0
   23.6467   -6.1269    0.0000 N   0  0  0  0  0  0  0  0  0  0  0  0
   24.8978   -6.9544    0.0000 C   0  0  0  0  0  0  0  0  0  0  0  0
   24.8067   -8.4517    0.0000 N   0  0  0  0  0  0  0  0  0  0  0  0
   26.2400   -6.2847    0.0000 N   0  0  0  0  0  0  0  0  0  0  0  0
   19.9846   -2.1471    0.0000 C   0  0  0  0  0  0  0  0  0  0  0  0
   20.0767   -3.6443    0.0000 O   0  0  0  0  0  0  0  0  0  0  0  0
   18.7335   -1.3196    0.0000 N   0  0  0  0  0  0  0  0  0  0  0  0
   17.3913   -1.9893    0.0000 C   0  0  0  0  0  0  0  0  0  0  0  0
   18.2839   -3.1948    0.0000 C   0  0  0  0  0  0  0  0  0  0  0  0
   17.6862   -4.5706    0.0000 C   0  0  0  0  0  0  0  0  0  0  0  0
   18.5788   -5.7761    0.0000 C   0  0  0  0  0  0  0  0  0  0  0  0
   17.9811   -7.1518    0.0000 N   0  0  0  0  0  0  0  0  0  0  0  0
   20.0691   -5.6058    0.0000 O   0  0  0  0  0  0  0  0  0  0  0  0
   15.9010   -2.1595    0.0000 C   0  0  0  0  0  0  0  0  0  0  0  0
   15.4755   -3.5979    0.0000 O   0  0  0  0  0  0  0  0  0  0  0  0
   15.0084   -0.9540    0.0000 N   0  0  0  0  0  0  0  0  0  0  0  0
   13.5181   -1.1243    0.0000 C   0  0  0  0  0  0  0  0  0  0  0  0
   13.9446   -2.5624    0.0000 C   0  0  0  0  0  0  0  0  0  0  0  0
   12.0595   -0.7745    0.0000 C   0  0  0  0  0  0  0  0  0  0  0  0
   11.0273   -1.8629    0.0000 O   0  0  0  0  0  0  0  0  0  0  0  0
   11.6330    0.6636    0.0000 N   0  0  0  0  0  0  0  0  0  0  0  0
   10.1744    1.0133    0.0000 C   0  0  0  0  0  0  0  0  0  0  0  0
   10.7721    2.3891    0.0000 C   0  0  0  0  0  0  0  0  0  0  0  0
   12.2624    2.5593    0.0000 C   0  0  0  0  0  0  0  0  0  0  0  0
   12.8601    3.9351    0.0000 C   0  0  0  0  0  0  0  0  0  0  0  0
   14.3504    4.1053    0.0000 N   0  0  0  0  0  0  0  0  0  0  0  0
   14.9481    5.4811    0.0000 C   0  0  0  0  0  0  0  0  0  0  0  0
   16.4384    5.6514    0.0000 N   0  0  0  0  0  0  0  0  0  0  0  0
   14.0555    6.6866    0.0000 N   0  0  0  0  0  0  0  0  0  0  0  0
    8.6840    0.8430    0.0000 C   0  0  0  0  0  0  0  0  0  0  0  0
    7.9451    2.1484    0.0000 O   0  0  0  0  0  0  0  0  0  0  0  0
    8.0863   -0.5327    0.0000 N   0  0  0  0  0  0  0  0  0  0  0  0
    6.5960   -0.7030    0.0000 C   0  0  0  0  0  0  0  0  0  0  0  0
    6.6872    0.7943    0.0000 C   0  0  0  0  0  0  0  0  0  0  0  0
    5.4361    1.6218    0.0000 C   0  0  0  0  0  0  0  0  0  0  0  0
    5.5272    3.1190    0.0000 C   0  0  0  0  0  0  0  0  0  0  0  0
    4.2761    3.9465    0.0000 N   0  0  0  0  0  0  0  0  0  0  0  0
    4.3672    5.4438    0.0000 C   0  0  0  0  0  0  0  0  0  0  0  0
    3.1162    6.2713    0.0000 N   0  0  0  0  0  0  0  0  0  0  0  0
    5.7094    6.1135    0.0000 N   0  0  0  0  0  0  0  0  0  0  0  0
    5.2538   -1.3727    0.0000 C   0  0  0  0  0  0  0  0  0  0  0  0
    4.0028   -0.5451    0.0000 O   0  0  0  0  0  0  0  0  0  0  0  0
    5.1627   -2.8699    0.0000 N   0  0  0  0  0  0  0  0  0  0  0  0
    3.8205   -3.5396    0.0000 C   0  0  0  0  0  0  0  0  0  0  0  0
    4.7131   -4.7451    0.0000 C   0  0  0  0  0  0  0  0  0  0  0  0
    6.2034   -4.5749    0.0000 C   0  0  0  0  0  0  0  0  0  0  0  0
    7.0960   -5.7804    0.0000 N   0  0  0  0  0  0  0  0  0  0  0  0
    6.9644   -3.2822    0.0000 O   0  0  0  0  0  0  0  0  0  0  0  0
    2.3302   -3.7099    0.0000 C   0  0  0  0  0  0  0  0  0  0  0  0
    2.1989   -4.4961    0.0000 O   0  0  0  0  0  0  0  0  0  0  0  0
    1.4376   -2.5043    0.0000 N   0  0  0  0  0  0  0  0  0  0  0  0
   -0.0527   -2.6746    0.0000 C   0  0  0  0  0  0  0  0  0  0  0  0
    0.3738   -4.1127    0.0000 C   0  0  0  0  0  0  0  0  0  0  0  0
    1.8324   -4.4624    0.0000 C   0  0  0  0  0  0  0  0  0  0  0  0
    2.2589   -5.9005    0.0000 C   0  0  0  0  0  0  0  0  0  0  0  0
    3.7175   -6.2503    0.0000 N   0  0  0  0  0  0  0  0  0  0  0  0
    4.1440   -7.6884    0.0000 C   0  0  0  0  0  0  0  0  0  0  0  0
    5.6026   -8.0381    0.0000 N   0  0  0  0  0  0  0  0  0  0  0  0
    3.1118   -8.7767    0.0000 N   0  0  0  0  0  0  0  0  0  0  0  0
   -1.5114   -2.3249    0.0000 C   0  0  0  0  0  0  0  0  0  0  0  0
   -2.2495   -3.6307    0.0000 O   0  0  0  0  0  0  0  0  0  0  0  0
   -1.9378   -0.8868    0.0000 N   0  0  0  0  0  0  0  0  0  0  0  0
   -3.3965   -0.5370    0.0000 C   0  0  0  0  0  0  0  0  0  0  0  0
   -3.4876   -2.0343    0.0000 C   0  0  0  0  0  0  0  0  0  0  0  0
   -2.2365   -2.8618    0.0000 C   0  0  0  0  0  0  0  0  0  0  0  0
   -2.3276   -4.3590    0.0000 C   0  0  0  0  0  0  0  0  0  0  0  0
   -1.0766   -5.1866    0.0000 N   0  0  0  0  0  0  0  0  0  0  0  0
   -1.1677   -6.6838    0.0000 C   0  0  0  0  0  0  0  0  0  0  0  0
    0.0834   -7.5113    0.0000 N   0  0  0  0  0  0  0  0  0  0  0  0
   -2.5099   -7.3535    0.0000 N   0  0  0  0  0  0  0  0  0  0  0  0
   -4.6476    0.2905    0.0000 C   0  0  0  0  0  0  0  0  0  0  0  0
   -5.7878   -0.6841    0.0000 O   0  0  0  0  0  0  0  0  0  0  0  0
   -4.5564    1.7877    0.0000 N   0  0  0  0  0  0  0  0  0  0  0  0
   -5.8075    2.6153    0.0000 C   0  0  0  0  0  0  0  0  0  0  0  0
   -6.4052    1.2395    0.0000 C   0  0  0  0  0  0  0  0  0  0  0  0
   -5.5126    0.0340    0.0000 C   0  0  0  0  0  0  0  0  0  0  0  0
   -6.1103   -1.3418    0.0000 C   0  0  0  0  0  0  0  0  0  0  0  0
   -5.2177   -2.5473    0.0000 N   0  0  0  0  0  0  0  0  0  0  0  0
   -5.8154   -3.9231    0.0000 C   0  0  0  0  0  0  0  0  0  0  0  0
   -4.9228   -5.1286    0.0000 N   0  0  0  0  0  0  0  0  0  0  0  0
   -7.3058   -4.0933    0.0000 N   0  0  0  0  0  0  0  0  0  0  0  0
   -6.7001    3.8208    0.0000 C   0  0  0  0  0  0  0  0  0  0  0  0
   -8.1049    3.2950    0.0000 O   0  0  0  0  0  0  0  0  0  0  0  0
   -6.1024    5.1965    0.0000 N   0  0  0  0  0  0  0  0  0  0  0  0
   -6.9950    6.4021    0.0000 C   0  0  0  0  0  0  0  0  0  0  0  0
   -8.0272    5.3137    0.0000 C   0  0  0  0  0  0  0  0  0  0  0  0
   -7.6007    3.8756    0.0000 C   0  0  0  0  0  0  0  0  0  0  0  0
   -8.6329    2.7872    0.0000 C   0  0  0  0  0  0  0  0  0  0  0  0
   -8.2065    1.3491    0.0000 N   0  0  0  0  0  0  0  0  0  0  0  0
   -9.2387    0.2607    0.0000 C   0  0  0  0  0  0  0  0  0  0  0  0
   -8.8122   -1.1774    0.0000 N   0  0  0  0  0  0  0  0  0  0  0  0
  -10.7291    0.4301    0.0000 N   0  0  0  0  0  0  0  0  0  0  0  0
   -7.4215    7.8402    0.0000 C   0  0  0  0  0  0  0  0  0  0  0  0
   -8.9214    7.8265    0.0000 O   0  0  0  0  0  0  0  0  0  0  0  0
   -6.3892    8.9285    0.0000 N   0  0  0  0  0  0  0  0  0  0  0  0
   -6.8157   10.3666    0.0000 C   0  0  0  0  0  0  0  0  0  0  0  0
   -6.7246   11.8639    0.0000 C   0  0  0  0  0  0  0  0  0  0  0  0
   -5.3824   12.5336    0.0000 C   0  0  0  0  0  0  0  0  0  0  0  0
   -4.0517   11.8413    0.0000 C   0  0  0  0  0  0  0  0  0  0  0  0
   -2.9821   12.8930    0.0000 N   0  0  0  0  0  0  0  0  0  0  0  0
   -3.6518   14.2352    0.0000 C   0  0  0  0  0  0  0  0  0  0  0  0
   -3.1025   15.6310    0.0000 C   0  0  0  0  0  0  0  0  0  0  0  0
   -4.0366   16.8046    0.0000 C   0  0  0  0  0  0  0  0  0  0  0  0
   -5.5200   16.5825    0.0000 C   0  0  0  0  0  0  0  0  0  0  0  0
   -6.0694   15.1867    0.0000 C   0  0  0  0  0  0  0  0  0  0  0  0
   -5.1353   14.0131    0.0000 C   0  0  0  0  0  0  0  0  0  0  0  0
   -8.1579    9.6969    0.0000 C   0  0  0  0  0  0  0  0  0  0  0  0
   -9.4090   10.5245    0.0000 O   0  0  0  0  0  0  0  0  0  0  0  0
   -8.2490    8.1997    0.0000 N   0  0  0  0  0  0  0  0  0  0  0  0
   -9.5912    7.5300    0.0000 C   0  0  0  0  0  0  0  0  0  0  0  0
  -11.0815    7.3597    0.0000 C   0  0  0  0  0  0  0  0  0  0  0  0
  -11.6792    5.9840    0.0000 C   0  0  0  0  0  0  0  0  0  0  0  0
  -13.1695    5.8137    0.0000 C   0  0  0  0  0  0  0  0  0  0  0  0
  -13.7673    4.4380    0.0000 N   0  0  0  0  0  0  0  0  0  0  0  0
  -15.2576    4.2677    0.0000 C   0  0  0  0  0  0  0  0  0  0  0  0
  -15.6831    2.8293    0.0000 N   0  0  0  0  0  0  0  0  0  0  0  0
  -16.1502    5.4732    0.0000 N   0  0  0  0  0  0  0  0  0  0  0  0
   -9.6823    6.0328    0.0000 C   0  0  0  0  0  0  0  0  0  0  0  0
   -8.6687    4.9271    0.0000 O   0  0  0  0  0  0  0  0  0  0  0  0
  -11.0245    5.3631    0.0000 N   0  0  0  0  0  0  0  0  0  0  0  0
  -11.1157    3.8658    0.0000 C   0  0  0  0  0  0  0  0  0  0  0  0
  -10.6892    2.4277    0.0000 C   0  0  0  0  0  0  0  0  0  0  0  0
  -11.7214    1.3394    0.0000 C   0  0  0  0  0  0  0  0  0  0  0  0
  -11.2950   -0.0987    0.0000 C   0  0  0  0  0  0  0  0  0  0  0  0
  -12.1868   -1.3048    0.0000 O   0  0  0  0  0  0  0  0  0  0  0  0
   -9.8363   -0.4485    0.0000 O   0  0  0  0  0  0  0  0  0  0  0  0
  -12.4579    3.1961    0.0000 C   0  0  0  0  0  0  0  0  0  0  0  0
  -13.8720    3.6963    0.0000 O   0  0  0  0  0  0  0  0  0  0  0  0
  -12.5490    1.6989    0.0000 N   0  0  0  0  0  0  0  0  0  0  0  0
  -13.8912    1.0292    0.0000 C   0  0  0  0  0  0  0  0  0  0  0  0
  -15.3815    0.8590    0.0000 C   0  0  0  0  0  0  0  0  0  0  0  0
  -15.9792   -0.5168    0.0000 C   0  0  0  0  0  0  0  0  0  0  0  0
  -17.4695   -0.6871    0.0000 C   0  0  0  0  0  0  0  0  0  0  0  0
  -18.0672   -2.0628    0.0000 N   0  0  0  0  0  0  0  0  0  0  0  0
  -19.5575   -2.2331    0.0000 C   0  0  0  0  0  0  0  0  0  0  0  0
  -19.9831   -3.6715    0.0000 N   0  0  0  0  0  0  0  0  0  0  0  0
  -20.4501   -1.0276    0.0000 N   0  0  0  0  0  0  0  0  0  0  0  0
  -13.9823   -0.4680    0.0000 C   0  0  0  0  0  0  0  0  0  0  0  0
  -12.8414   -1.4419    0.0000 O   0  0  0  0  0  0  0  0  0  0  0  0
  -15.3245   -1.1377    0.0000 N   0  0  0  0  0  0  0  0  0  0  0  0
  -15.4156   -2.6350    0.0000 C   0  0  0  0  0  0  0  0  0  0  0  0
  -14.9892   -4.0731    0.0000 C   0  0  0  0  0  0  0  0  0  0  0  0
  -16.0214   -5.1614    0.0000 C   0  0  0  0  0  0  0  0  0  0  0  0
  -15.5949   -6.5995    0.0000 C   0  0  0  0  0  0  0  0  0  0  0  0
  -16.4868   -7.8056    0.0000 N   0  0  0  0  0  0  0  0  0  0  0  0
  -14.1363   -6.9493    0.0000 O   0  0  0  0  0  0  0  0  0  0  0  0
  -16.7578   -3.3047    0.0000 C   0  0  0  0  0  0  0  0  0  0  0  0
  -18.1720   -2.8044    0.0000 O   0  0  0  0  0  0  0  0  0  0  0  0
  -16.8490   -4.8019    0.0000 N   0  0  0  0  0  0  0  0  0  0  0  0
  -18.1912   -5.4716    0.0000 C   0  0  0  0  0  0  0  0  0  0  0  0
  -19.6815   -5.6418    0.0000 C   0  0  0  0  0  0  0  0  0  0  0  0
  -20.2792   -7.0176    0.0000 C   0  0  0  0  0  0  0  0  0  0  0  0
  -21.7695   -7.1879    0.0000 C   0  0  0  0  0  0  0  0  0  0  0  0
  -22.3672   -8.5636    0.0000 N   0  0  0  0  0  0  0  0  0  0  0  0
  -23.8575   -8.7339    0.0000 C   0  0  0  0  0  0  0  0  0  0  0  0
  -24.4552  -10.1097    0.0000 N   0  0  0  0  0  0  0  0  0  0  0  0
  -24.7501   -7.5284    0.0000 N   0  0  0  0  0  0  0  0  0  0  0  0
  -18.2823   -6.9688    0.0000 C   0  0  0  0  0  0  0  0  0  0  0  0
  -19.5328   -7.7971    0.0000 O   0  0  0  0  0  0  0  0  0  0  0  0
  -17.1414   -7.9427    0.0000 O   0  0  0  0  0  0  0  0  0  0  0  0
   23.9652    8.0935    0.0000 H   0  0  0  0  0  0  0  0  0  0  0  0
   26.3481    7.0582    0.0000 H   0  0  0  0  0  0  0  0  0  0  0  0
   23.0090    6.3397    0.0000 H   0  0  0  0  0  0  0  0  0  0  0  0
   23.2279    4.4238    0.0000 H   0  0  0  0  0  0  0  0  0  0  0  0
   26.1849    5.3950    0.0000 H   0  0  0  0  0  0  0  0  0  0  0  0
   26.4038    3.4791    0.0000 H   0  0  0  0  0  0  0  0  0  0  0  0
   26.9060    2.0760    0.0000 H   0  0  0  0  0  0  0  0  0  0  0  0
   23.5988    1.1771    0.0000 H   0  0  0  0  0  0  0  0  0  0  0  0
   25.7108   -1.3759    0.0000 H   0  0  0  0  0  0  0  0  0  0  0  0
   28.9735   -0.3265    0.0000 H   0  0  0  0  0  0  0  0  0  0  0  0
   28.8312    0.9189    0.0000 H   0  0  0  0  0  0  0  0  0  0  0  0
   27.9385    2.4640    0.0000 H   0  0  0  0  0  0  0  0  0  0  0  0
   26.4694    2.3092    0.0000 H   0  0  0  0  0  0  0  0  0  0  0  0
   21.9326    1.0491    0.0000 H   0  0  0  0  0  0  0  0  0  0  0  0
   20.4342   -0.2719    0.0000 H   0  0  0  0  0  0  0  0  0  0  0  0
   24.0366   -2.6547    0.0000 H   0  0  0  0  0  0  0  0  0  0  0  0
   23.4907   -1.1147    0.0000 H   0  0  0  0  0  0  0  0  0  0  0  0
   21.8891   -5.1779    0.0000 H   0  0  0  0  0  0  0  0  0  0  0  0
   21.0281   -3.4524    0.0000 H   0  0  0  0  0  0  0  0  0  0  0  0
   25.1965   -4.9794    0.0000 H   0  0  0  0  0  0  0  0  0  0  0  0
   24.4988   -3.3370    0.0000 H   0  0  0  0  0  0  0  0  0  0  0  0
   22.3045   -6.7966    0.0000 H   0  0  0  0  0  0  0  0  0  0  0  0
   26.0578   -9.2792    0.0000 H   0  0  0  0  0  0  0  0  0  0  0  0
   23.4645   -9.1214    0.0000 H   0  0  0  0  0  0  0  0  0  0  0  0
   27.4911   -7.1123    0.0000 H   0  0  0  0  0  0  0  0  0  0  0  0
   26.3311   -4.7875    0.0000 H   0  0  0  0  0  0  0  0  0  0  0  0
   18.8247    0.1777    0.0000 H   0  0  0  0  0  0  0  0  0  0  0  0
   16.9649   -0.5512    0.0000 H   0  0  0  0  0  0  0  0  0  0  0  0
   19.4248   -4.1686    0.0000 H   0  0  0  0  0  0  0  0  0  0  0  0
   19.5488   -2.3885    0.0000 H   0  0  0  0  0  0  0  0  0  0  0  0
   16.6540   -5.6589    0.0000 H   0  0  0  0  0  0  0  0  0  0  0  0
   16.4351   -3.7430    0.0000 H   0  0  0  0  0  0  0  0  0  0  0  0
   18.8737   -8.3574    0.0000 H   0  0  0  0  0  0  0  0  0  0  0  0
   16.4908   -7.3221    0.0000 H   0  0  0  0  0  0  0  0  0  0  0  0
   15.6061    0.4218    0.0000 H   0  0  0  0  0  0  0  0  0  0  0  0
   13.6093    0.3730    0.0000 H   0  0  0  0  0  0  0  0  0  0  0  0
   15.3497   -3.0873    0.0000 H   0  0  0  0  0  0  0  0  0  0  0  0
   13.8535   -4.0596    0.0000 H   0  0  0  0  0  0  0  0  0  0  0  0
   12.4543   -2.7326    0.0000 H   0  0  0  0  0  0  0  0  0  0  0  0
   12.7902    1.6180    0.0000 H   0  0  0  0  0  0  0  0  0  0  0  0
   10.0832   -0.4839    0.0000 H   0  0  0  0  0  0  0  0  0  0  0  0
   10.6800    3.8862    0.0000 H   0  0  0  0  0  0  0  0  0  0  0  0
    9.3134    2.7388    0.0000 H   0  0  0  0  0  0  0  0  0  0  0  0
   13.7210    2.2096    0.0000 H   0  0  0  0  0  0  0  0  0  0  0  0
   12.7140    1.1289    0.0000 H   0  0  0  0  0  0  0  0  0  0  0  0
   12.9512    5.4323    0.0000 H   0  0  0  0  0  0  0  0  0  0  0  0
   11.4549    4.4600    0.0000 H   0  0  0  0  0  0  0  0  0  0  0  0
   15.2430    2.8998    0.0000 H   0  0  0  0  0  0  0  0  0  0  0  0
   17.0361    7.0271    0.0000 H   0  0  0  0  0  0  0  0  0  0  0  0
   17.3310    4.4459    0.0000 H   0  0  0  0  0  0  0  0  0  0  0  0
   14.6532    8.0624    0.0000 H   0  0  0  0  0  0  0  0  0  0  0  0
   12.5652    6.5164    0.0000 H   0  0  0  0  0  0  0  0  0  0  0  0
    8.9789   -1.7382    0.0000 H   0  0  0  0  0  0  0  0  0  0  0  0
    7.0225   -2.1411    0.0000 H   0  0  0  0  0  0  0  0  0  0  0  0
    7.2849    2.1700    0.0000 H   0  0  0  0  0  0  0  0  0  0  0  0
    8.1871    0.8079    0.0000 H   0  0  0  0  0  0  0  0  0  0  0  0
    3.9774    1.9715    0.0000 H   0  0  0  0  0  0  0  0  0  0  0  0
    4.8384    0.2460    0.0000 H   0  0  0  0  0  0  0  0  0  0  0  0
    6.1249    4.4948    0.0000 H   0  0  0  0  0  0  0  0  0  0  0  0
    7.0176    2.9497    0.0000 H   0  0  0  0  0  0  0  0  0  0  0  0
    2.9339    3.2768    0.0000 H   0  0  0  0  0  0  0  0  0  0  0  0
    3.2073    7.7685    0.0000 H   0  0  0  0  0  0  0  0  0  0  0  0
    1.7740    5.6016    0.0000 H   0  0  0  0  0  0  0  0  0  0  0  0
    5.8006    7.6107    0.0000 H   0  0  0  0  0  0  0  0  0  0  0  0
    6.9605    5.2859    0.0000 H   0  0  0  0  0  0  0  0  0  0  0  0
    6.5053   -3.5388    0.0000 H   0  0  0  0  0  0  0  0  0  0  0  0
    3.3941   -2.1015    0.0000 H   0  0  0  0  0  0  0  0  0  0  0  0
    5.1396   -6.1832    0.0000 H   0  0  0  0  0  0  0  0  0  0  0  0
    3.5728   -5.7197    0.0000 H   0  0  0  0  0  0  0  0  0  0  0  0
    8.5863   -5.6101    0.0000 H   0  0  0  0  0  0  0  0  0  0  0  0
    6.6705   -7.2188    0.0000 H   0  0  0  0  0  0  0  0  0  0  0  0
    2.0353   -1.1286    0.0000 H   0  0  0  0  0  0  0  0  0  0  0  0
    0.0384   -1.1774    0.0000 H   0  0  0  0  0  0  0  0  0  0  0  0
    0.1008   -5.5877    0.0000 H   0  0  0  0  0  0  0  0  0  0  0  0
   -1.0311   -4.6385    0.0000 H   0  0  0  0  0  0  0  0  0  0  0  0
    3.3227   -4.2922    0.0000 H   0  0  0  0  0  0  0  0  0  0  0  0
    2.2831   -3.0317    0.0000 H   0  0  0  0  0  0  0  0  0  0  0  0
    2.1677   -7.3978    0.0000 H   0  0  0  0  0  0  0  0  0  0  0  0
    0.8004   -6.2512    0.0000 H   0  0  0  0  0  0  0  0  0  0  0  0
    4.9824   -5.4440    0.0000 H   0  0  0  0  0  0  0  0  0  0  0  0
    6.0291   -9.4762    0.0000 H   0  0  0  0  0  0  0  0  0  0  0  0
    6.7598   -7.0837    0.0000 H   0  0  0  0  0  0  0  0  0  0  0  0
    3.5382  -10.2148    0.0000 H   0  0  0  0  0  0  0  0  0  0  0  0
    1.6531   -8.4270    0.0000 H   0  0  0  0  0  0  0  0  0  0  0  0
   -0.9056    0.2016    0.0000 H   0  0  0  0  0  0  0  0  0  0  0  0
   -2.7988    0.8387    0.0000 H   0  0  0  0  0  0  0  0  0  0  0  0
   -4.2486   -3.3269    0.0000 H   0  0  0  0  0  0  0  0  0  0  0  0
   -4.9875   -2.0479    0.0000 H   0  0  0  0  0  0  0  0  0  0  0  0
   -0.7779   -3.2115    0.0000 H   0  0  0  0  0  0  0  0  0  0  0  0
   -1.3237   -1.6715    0.0000 H   0  0  0  0  0  0  0  0  0  0  0  0
   -2.9254   -5.7348    0.0000 H   0  0  0  0  0  0  0  0  0  0  0  0
   -3.8181   -4.1897    0.0000 H   0  0  0  0  0  0  0  0  0  0  0  0
    0.3878   -4.8615    0.0000 H   0  0  0  0  0  0  0  0  0  0  0  0
   -0.0077   -9.0085    0.0000 H   0  0  0  0  0  0  0  0  0  0  0  0
    1.4256   -6.8416    0.0000 H   0  0  0  0  0  0  0  0  0  0  0  0
   -2.6010   -8.8507    0.0000 H   0  0  0  0  0  0  0  0  0  0  0  0
   -3.7610   -6.5260    0.0000 H   0  0  0  0  0  0  0  0  0  0  0  0
   -3.2142    2.4574    0.0000 H   0  0  0  0  0  0  0  0  0  0  0  0
   -4.7753    3.7036    0.0000 H   0  0  0  0  0  0  0  0  0  0  0  0
   -7.5624    0.2850    0.0000 H   0  0  0  0  0  0  0  0  0  0  0  0
   -7.8194    1.7397    0.0000 H   0  0  0  0  0  0  0  0  0  0  0  0
   -4.2615   -0.7936    0.0000 H   0  0  0  0  0  0  0  0  0  0  0  0
   -4.2477    0.8402    0.0000 H   0  0  0  0  0  0  0  0  0  0  0  0
   -7.1425   -2.4302    0.0000 H   0  0  0  0  0  0  0  0  0  0  0  0
   -7.4530   -0.6729    0.0000 H   0  0  0  0  0  0  0  0  0  0  0  0
   -3.7305   -2.7427    0.0000 H   0  0  0  0  0  0  0  0  0  0  0  0
   -5.5206   -6.5044    0.0000 H   0  0  0  0  0  0  0  0  0  0  0  0
   -3.4325   -4.9584    0.0000 H   0  0  0  0  0  0  0  0  0  0  0  0
   -7.9035   -5.4691    0.0000 H   0  0  0  0  0  0  0  0  0  0  0  0
   -8.1984   -2.8878    0.0000 H   0  0  0  0  0  0  0  0  0  0  0  0
   -4.6121    5.3668    0.0000 H   0  0  0  0  0  0  0  0  0  0  0  0
   -5.6528    7.0718    0.0000 H   0  0  0  0  0  0  0  0  0  0  0  0
   -9.3694    4.6440    0.0000 H   0  0  0  0  0  0  0  0  0  0  0  0
   -8.9198    6.5192    0.0000 H   0  0  0  0  0  0  0  0  0  0  0  0
   -6.7081    2.6701    0.0000 H   0  0  0  0  0  0  0  0  0  0  0  0
   -6.1364    4.2006    0.0000 H   0  0  0  0  0  0  0  0  0  0  0  0
   -9.7732    1.8126    0.0000 H   0  0  0  0  0  0  0  0  0  0  0  0
   -9.5255    3.9927    0.0000 H   0  0  0  0  0  0  0  0  0  0  0  0
   -6.8758    0.6568    0.0000 H   0  0  0  0  0  0  0  0  0  0  0  0
   -9.8444   -2.2657    0.0000 H   0  0  0  0  0  0  0  0  0  0  0  0
   -7.3536   -1.5271    0.0000 H   0  0  0  0  0  0  0  0  0  0  0  0
  -11.4355   -0.6953    0.0000 H   0  0  0  0  0  0  0  0  0  0  0  0
  -11.4591    1.9026    0.0000 H   0  0  0  0  0  0  0  0  0  0  0  0
   -4.9306    8.5788    0.0000 H   0  0  0  0  0  0  0  0  0  0  0  0
   -5.3254   10.5369    0.0000 H   0  0  0  0  0  0  0  0  0  0  0  0
   -8.2149   11.6936    0.0000 H   0  0  0  0  0  0  0  0  0  0  0  0
   -7.1510   13.3020    0.0000 H   0  0  0  0  0  0  0  0  0  0  0  0
   -3.8295   10.3579    0.0000 H   0  0  0  0  0  0  0  0  0  0  0  0
   -1.5026   12.6459    0.0000 H   0  0  0  0  0  0  0  0  0  0  0  0
   -1.6190   15.8532    0.0000 H   0  0  0  0  0  0  0  0  0  0  0  0
   -3.4873   18.2004    0.0000 H   0  0  0  0  0  0  0  0  0  0  0  0
   -6.4542   17.7561    0.0000 H   0  0  0  0  0  0  0  0  0  0  0  0
   -7.5528   14.9645    0.0000 H   0  0  0  0  0  0  0  0  0  0  0  0
   -7.2354    7.0940    0.0000 H   0  0  0  0  0  0  0  0  0  0  0  0
  -10.0177    8.9681    0.0000 H   0  0  0  0  0  0  0  0  0  0  0  0
  -12.4867    7.8847    0.0000 H   0  0  0  0  0  0  0  0  0  0  0  0
  -10.9904    8.8570    0.0000 H   0  0  0  0  0  0  0  0  0  0  0  0
  -11.7704    4.4867    0.0000 H   0  0  0  0  0  0  0  0  0  0  0  0
  -10.5556    4.9903    0.0000 H   0  0  0  0  0  0  0  0  0  0  0  0
  -14.6282    6.1635    0.0000 H   0  0  0  0  0  0  0  0  0  0  0  0
  -13.2616    7.3109    0.0000 H   0  0  0  0  0  0  0  0  0  0  0  0
  -13.3661    2.9926    0.0000 H   0  0  0  0  0  0  0  0  0  0  0  0
  -17.3456    2.7217    0.0000 H   0  0  0  0  0  0  0  0  0  0  0  0
  -14.8287    1.7828    0.0000 H   0  0  0  0  0  0  0  0  0  0  0  0
  -17.6405    5.3030    0.0000 H   0  0  0  0  0  0  0  0  0  0  0  0
  -15.5525    6.8490    0.0000 H   0  0  0  0  0  0  0  0  0  0  0  0
  -12.4387    5.8633    0.0000 H   0  0  0  0  0  0  0  0  0  0  0  0
   -9.6254    4.0361    0.0000 H   0  0  0  0  0  0  0  0  0  0  0  0
   -9.7966    1.2222    0.0000 H   0  0  0  0  0  0  0  0  0  0  0  0
   -9.5490    3.4023    0.0000 H   0  0  0  0  0  0  0  0  0  0  0  0
  -13.0636    0.6697    0.0000 H   0  0  0  0  0  0  0  0  0  0  0  0
  -13.1441    1.8147    0.0000 H   0  0  0  0  0  0  0  0  0  0  0  0
  -11.6777    0.4779    0.0000 H   0  0  0  0  0  0  0  0  0  0  0  0
  -14.3176    2.4673    0.0000 H   0  0  0  0  0  0  0  0  0  0  0  0
  -16.7867    1.3839    0.0000 H   0  0  0  0  0  0  0  0  0  0  0  0
  -14.9308    2.2896    0.0000 H   0  0  0  0  0  0  0  0  0  0  0  0
  -16.0703   -2.0140    0.0000 H   0  0  0  0  0  0  0  0  0  0  0  0
  -14.8556   -1.5105    0.0000 H   0  0  0  0  0  0  0  0  0  0  0  0
  -18.9282   -0.3373    0.0000 H   0  0  0  0  0  0  0  0  0  0  0  0
  -17.5616    0.8101    0.0000 H   0  0  0  0  0  0  0  0  0  0  0  0
  -17.6660   -3.5082    0.0000 H   0  0  0  0  0  0  0  0  0  0  0  0
  -21.6455   -3.7791    0.0000 H   0  0  0  0  0  0  0  0  0  0  0  0
  -19.1287   -4.7180    0.0000 H   0  0  0  0  0  0  0  0  0  0  0  0
  -21.9404   -1.1978    0.0000 H   0  0  0  0  0  0  0  0  0  0  0  0
  -19.8524    0.3482    0.0000 H   0  0  0  0  0  0  0  0  0  0  0  0
  -16.7387   -0.6375    0.0000 H   0  0  0  0  0  0  0  0  0  0  0  0
  -13.9253   -2.4647    0.0000 H   0  0  0  0  0  0  0  0  0  0  0  0
  -14.0966   -5.2786    0.0000 H   0  0  0  0  0  0  0  0  0  0  0  0
  -13.6470   -3.4034    0.0000 H   0  0  0  0  0  0  0  0  0  0  0  0
  -17.3636   -5.8311    0.0000 H   0  0  0  0  0  0  0  0  0  0  0  0
  -17.4441   -4.6861    0.0000 H   0  0  0  0  0  0  0  0  0  0  0  0
  -16.2007   -9.1260    0.0000 H   0  0  0  0  0  0  0  0  0  0  0  0
  -18.1471   -7.9424    0.0000 H   0  0  0  0  0  0  0  0  0  0  0  0
  -15.8353   -5.9075    0.0000 H   0  0  0  0  0  0  0  0  0  0  0  0
  -18.6176   -4.0335    0.0000 H   0  0  0  0  0  0  0  0  0  0  0  0
  -21.0866   -5.1169    0.0000 H   0  0  0  0  0  0  0  0  0  0  0  0
  -19.2308   -4.2111    0.0000 H   0  0  0  0  0  0  0  0  0  0  0  0
  -20.3703   -8.5148    0.0000 H   0  0  0  0  0  0  0  0  0  0  0  0
  -19.1556   -8.0113    0.0000 H   0  0  0  0  0  0  0  0  0  0  0  0
  -23.2281   -6.8381    0.0000 H   0  0  0  0  0  0  0  0  0  0  0  0
  -21.8615   -5.6907    0.0000 H   0  0  0  0  0  0  0  0  0  0  0  0
  -21.4746   -9.7691    0.0000 H   0  0  0  0  0  0  0  0  0  0  0  0
  -25.9455  -10.2799    0.0000 H   0  0  0  0  0  0  0  0  0  0  0  0
  -23.5626  -11.3152    0.0000 H   0  0  0  0  0  0  0  0  0  0  0  0
  -26.2404   -7.6986    0.0000 H   0  0  0  0  0  0  0  0  0  0  0  0
  -24.1524   -6.1526    0.0000 H   0  0  0  0  0  0  0  0  0  0  0  0
  1  2  1  0
  2  3  1  0
  3  4  1  0
  4  5  2  0
  4  6  1  0
  6  7  1  0
  7  8  1  0
  8  9  1  0
  8 10  1  0
  7 11  1  0
 11 12  2  0
 11 13  1  0
 13 14  1  0
 14 15  1  0
 15 16  1  0
 16 17  1  0
 17 18  1  0
 18 19  1  0
 19 20  2  3
 19 21  1  0
 14 22  1  0
 22 23  2  0
 22 24  1  0
 24 25  1  0
 25 26  1  0
 26 27  1  0
 27 28  1  0
 28 29  1  0
 28 30  2  0
 25 31  1  0
 31 32  2  0
 31 33  1  0
 33 34  1  0
 34 35  1  0
 34 36  1  0
 36 37  2  0
 36 38  1  0
 38 39  1  0
 39 40  1  0
 40 41  1  0
 41 42  1  0
 42 43  1  0
 43 44  1  0
 44 45  2  3
 44 46  1  0
 39 47  1  0
 47 48  2  0
 47 49  1  0
 49 50  1  0
 50 51  1  0
 51 52  1  0
 52 53  1  0
 53 54  1  0
 54 55  1  0
 55 56  2  3
 55 57  1  0
 50 58  1  0
 58 59  2  0
 58 60  1  0
 60 61  1  0
 61 62  1  0
 62 63  1  0
 63 64  1  0
 63 65  2  0
 61 66  1  0
 66 67  2  0
 66 68  1  0
 68 69  1  0
 69 70  1  0
 70 71  1  0
 71 72  1  0
 72 73  1  0
 73 74  1  0
 74 75  2  3
 74 76  1  0
 69 77  1  0
 77 78  2  0
 77 79  1  0
 79 80  1  0
 80 81  1  0
 81 82  1  0
 82 83  1  0
 83 84  1  0
 84 85  1  0
 85 86  2  3
 85 87  1  0
 80 88  1  0
 88 89  2  0
 88 90  1  0
 90 91  1  0
 91 92  1  0
 92 93  1  0
 93 94  1  0
 94 95  1  0
 95 96  1  0
 96 97  2  3
 96 98  1  0
 91 99  1  0
 99100  2  0
 99101  1  0
101102  1  0
102103  1  0
103104  1  0
104105  1  0
105106  1  0
106107  1  0
107108  2  3
107109  1  0
102110  1  0
110111  2  0
110112  1  0
112113  1  0
113114  1  0
114115  1  0
115116  2  0
116117  1  0
117118  1  0
118119  2  0
119120  1  0
120121  2  0
121122  1  0
122123  2  0
113124  1  0
124125  2  0
124126  1  0
126127  1  0
127128  1  0
128129  1  0
129130  1  0
130131  1  0
131132  1  0
132133  2  3
132134  1  0
127135  1  0
135136  2  0
135137  1  0
137138  1  0
138139  1  0
139140  1  0
140141  1  0
141142  2  0
141143  1  0
138144  1  0
144145  2  0
144146  1  0
146147  1  0
147148  1  0
148149  1  0
149150  1  0
150151  1  0
151152  1  0
152153  2  3
152154  1  0
147155  1  0
155156  2  0
155157  1  0
157158  1  0
158159  1  0
159160  1  0
160161  1  0
161162  1  0
161163  2  0
158164  1  0
164165  2  0
164166  1  0
166167  1  0
167168  1  0
168169  1  0
169170  1  0
170171  1  0
171172  1  0
172173  2  3
172174  1  0
167175  1  0
175176  2  0
175177  1  0
123115  1  0
123118  1  0
  1178  1  0
  1179  1  0
  2180  1  0
  2181  1  0
  3182  1  0
  3183  1  0
  6184  1  0
  7185  1  1
  8186  1  6
  9187  1  0
 10188  1  0
 10189  1  0
 10190  1  0
 13191  1  0
 14192  1  1
 15193  1  0
 15194  1  0
 16195  1  0
 16196  1  0
 17197  1  0
 17198  1  0
 18199  1  0
 20200  1  0
 20201  1  0
 21202  1  0
 21203  1  0
 24204  1  0
 25205  1  1
 26206  1  0
 26207  1  0
 27208  1  0
 27209  1  0
 29210  1  0
 29211  1  0
 33212  1  0
 34213  1  1
 35214  1  0
 35215  1  0
 35216  1  0
 38217  1  0
 39218  1  6
 40219  1  0
 40220  1  0
 41221  1  0
 41222  1  0
 42223  1  0
 42224  1  0
 43225  1  0
 45226  1  0
 45227  1  0
 46228  1  0
 46229  1  0
 49230  1  0
 50231  1  6
 51232  1  0
 51233  1  0
 52234  1  0
 52235  1  0
 53236  1  0
 53237  1  0
 54238  1  0
 56239  1  0
 56240  1  0
 57241  1  0
 57242  1  0
 60243  1  0
 61244  1  1
 62245  1  0
 62246  1  0
 64247  1  0
 64248  1  0
 68249  1  0
 69250  1  1
 70251  1  0
 70252  1  0
 71253  1  0
 71254  1  0
 72255  1  0
 72256  1  0
 73257  1  0
 75258  1  0
 75259  1  0
 76260  1  0
 76261  1  0
 79262  1  0
 80263  1  1
 81264  1  0
 81265  1  0
 82266  1  0
 82267  1  0
 83268  1  0
 83269  1  0
 84270  1  0
 86271  1  0
 86272  1  0
 87273  1  0
 87274  1  0
 90275  1  0
 91276  1  1
 92277  1  0
 92278  1  0
 93279  1  0
 93280  1  0
 94281  1  0
 94282  1  0
 95283  1  0
 97284  1  0
 97285  1  0
 98286  1  0
 98287  1  0
101288  1  0
102289  1  1
103290  1  0
103291  1  0
104292  1  0
104293  1  0
105294  1  0
105295  1  0
106296  1  0
108297  1  0
108298  1  0
109299  1  0
109300  1  0
112301  1  0
113302  1  6
114303  1  0
114304  1  0
116305  1  0
117306  1  0
119307  1  0
120308  1  0
121309  1  0
122310  1  0
126311  1  0
127312  1  6
128313  1  0
128314  1  0
129315  1  0
129316  1  0
130317  1  0
130318  1  0
131319  1  0
133320  1  0
133321  1  0
134322  1  0
134323  1  0
137324  1  0
138325  1  1
139326  1  0
139327  1  0
140328  1  0
140329  1  0
146330  1  0
147331  1  6
148332  1  0
148333  1  0
149334  1  0
149335  1  0
150336  1  0
150337  1  0
151338  1  0
153339  1  0
153340  1  0
154341  1  0
154342  1  0
157343  1  0
158344  1  1
159345  1  0
159346  1  0
160347  1  0
160348  1  0
162349  1  0
162350  1  0
166351  1  0
167352  1  6
168353  1  0
168354  1  0
169355  1  0
169356  1  0
170357  1  0
170358  1  0
171359  1  0
173360  1  0
173361  1  0
174362  1  0
174363  1  0
M  CHG  8  20   1  45   1  56   1  75   1  86   1  97   1 108   1 133   1
M  CHG  4 143  -1 153   1 173   1 177  -1
M  END
