
     RDKit          2D

254262  0  0  0  0  0  0  0  0999 V2000
  -17.6486   -0.3865    0.0000 C   0  0  0  0  0  0  0  0  0  0  0  0
  -18.9165   -1.1880    0.0000 N   0  0  0  0  0  0  0  0  0  0  0  0
  -20.2446   -0.4907    0.0000 C   0  0  0  0  0  0  0  0  0  0  0  0
  -20.3047    1.0081    0.0000 C   0  0  0  0  0  0  0  0  0  0  0  0
  -21.6328    1.7054    0.0000 C   0  0  0  0  0  0  0  0  0  0  0  0
  -22.9007    0.9039    0.0000 C   0  0  0  0  0  0  0  0  0  0  0  0
  -22.8405   -0.5949    0.0000 C   0  0  0  0  0  0  0  0  0  0  0  0
  -21.5125   -1.2922    0.0000 C   0  0  0  0  0  0  0  0  0  0  0  0
  -24.2474   -1.1153    0.0000 C   0  0  0  0  0  0  0  0  0  0  0  0
  -25.1770    0.0618    0.0000 O   0  0  0  0  0  0  0  0  0  0  0  0
  -24.3448    1.3098    0.0000 C   0  0  0  0  0  0  0  0  0  0  0  0
  -24.8652    2.7166    0.0000 O   0  0  0  0  0  0  0  0  0  0  0  0
  -25.7009   -1.4858    0.0000 C   0  0  0  0  0  0  0  0  0  0  0  0
  -26.1068   -2.9299    0.0000 C   0  0  0  0  0  0  0  0  0  0  0  0
  -27.5603   -3.3003    0.0000 C   0  0  0  0  0  0  0  0  0  0  0  0
  -28.6080   -2.2268    0.0000 C   0  0  0  0  0  0  0  0  0  0  0  0
  -28.2020   -0.7828    0.0000 C   0  0  0  0  0  0  0  0  0  0  0  0
  -26.7485   -0.4123    0.0000 C   0  0  0  0  0  0  0  0  0  0  0  0
  -30.0615   -2.5973    0.0000 O   0  0  0  0  0  0  0  0  0  0  0  0
  -25.0592   -4.0034    0.0000 O   0  0  0  0  0  0  0  0  0  0  0  0
  -23.6057   -3.6329    0.0000 C   0  0  0  0  0  0  0  0  0  0  0  0
  -23.1998   -2.1889    0.0000 C   0  0  0  0  0  0  0  0  0  0  0  0
  -21.9357   -2.4923    0.0000 C   0  0  0  0  0  0  0  0  0  0  0  0
  -21.3769   -3.0648    0.0000 C   0  0  0  0  0  0  0  0  0  0  0  0
  -21.5934   -3.8350    0.0000 C   0  0  0  0  0  0  0  0  0  0  0  0
  -22.3686   -4.0326    0.0000 C   0  0  0  0  0  0  0  0  0  0  0  0
  -20.0569   -5.4095    0.0000 O   0  0  0  0  0  0  0  0  0  0  0  0
  -17.7088    1.1123    0.0000 S   0  0  0  0  0  0  0  0  0  0  0  0
  -16.3205   -1.0837    0.0000 N   0  0  0  0  0  0  0  0  0  0  0  0
  -15.0526   -0.2822    0.0000 C   0  0  0  0  0  0  0  0  0  0  0  0
  -13.7245   -0.9795    0.0000 C   0  0  0  0  0  0  0  0  0  0  0  0
  -12.4566   -0.1780    0.0000 C   0  0  0  0  0  0  0  0  0  0  0  0
  -12.5168    1.3208    0.0000 O   0  0  0  0  0  0  0  0  0  0  0  0
  -11.1285   -0.8752    0.0000 N   0  0  0  0  0  0  0  0  0  0  0  0
   -9.8606   -0.0737    0.0000 C   0  0  0  0  0  0  0  0  0  0  0  0
   -8.9433    1.1131    0.0000 C   0  0  0  0  0  0  0  0  0  0  0  0
   -7.4569    0.9121    0.0000 C   0  0  0  0  0  0  0  0  0  0  0  0
   -6.5396    2.0989    0.0000 C   0  0  0  0  0  0  0  0  0  0  0  0
   -5.0531    1.8979    0.0000 N   0  0  0  0  0  0  0  0  0  0  0  0
   -4.1358    3.0848    0.0000 C   0  0  0  0  0  0  0  0  0  0  0  0
   -2.6849    2.7041    0.0000 N   0  0  0  0  0  0  0  0  0  0  0  0
   -4.7049    4.4726    0.0000 N   0  0  0  0  0  0  0  0  0  0  0  0
   -8.5325   -0.7710    0.0000 C   0  0  0  0  0  0  0  0  0  0  0  0
   -8.4724   -2.2698    0.0000 O   0  0  0  0  0  0  0  0  0  0  0  0
   -7.2646    0.0305    0.0000 N   0  0  0  0  0  0  0  0  0  0  0  0
   -5.9366   -0.6668    0.0000 C   0  0  0  0  0  0  0  0  0  0  0  0
   -4.9270   -1.7762    0.0000 C   0  0  0  0  0  0  0  0  0  0  0  0
   -5.3831   -3.2052    0.0000 C   0  0  0  0  0  0  0  0  0  0  0  0
   -4.3736   -4.3147    0.0000 C   0  0  0  0  0  0  0  0  0  0  0  0
   -4.8297   -5.7436    0.0000 N   0  0  0  0  0  0  0  0  0  0  0  0
   -3.8202   -6.8531    0.0000 C   0  0  0  0  0  0  0  0  0  0  0  0
   -4.2762   -8.2821    0.0000 N   0  0  0  0  0  0  0  0  0  0  0  0
   -2.3546   -6.5336    0.0000 N   0  0  0  0  0  0  0  0  0  0  0  0
   -4.6687    0.1348    0.0000 C   0  0  0  0  0  0  0  0  0  0  0  0
   -4.4468    1.2055    0.0000 O   0  0  0  0  0  0  0  0  0  0  0  0
   -3.3406   -0.5625    0.0000 N   0  0  0  0  0  0  0  0  0  0  0  0
   -2.0727    0.2390    0.0000 C   0  0  0  0  0  0  0  0  0  0  0  0
   -1.1554    1.4258    0.0000 C   0  0  0  0  0  0  0  0  0  0  0  0
    0.3311    1.2248    0.0000 C   0  0  0  0  0  0  0  0  0  0  0  0
    0.9003   -0.1630    0.0000 C   0  0  0  0  0  0  0  0  0  0  0  0
   -0.0533   -0.9159    0.0000 F   0  0  0  0  0  0  0  0  0  0  0  0
    2.3867   -0.3640    0.0000 C   0  0  0  0  0  0  0  0  0  0  0  0
    3.2748   -1.5728    0.0000 F   0  0  0  0  0  0  0  0  0  0  0  0
    3.3040    0.8229    0.0000 C   0  0  0  0  0  0  0  0  0  0  0  0
    4.7905    0.6219    0.0000 F   0  0  0  0  0  0  0  0  0  0  0  0
    2.7349    2.2107    0.0000 C   0  0  0  0  0  0  0  0  0  0  0  0
    3.9121    3.1403    0.0000 F   0  0  0  0  0  0  0  0  0  0  0  0
    1.2484    2.4117    0.0000 C   0  0  0  0  0  0  0  0  0  0  0  0
    0.3603    3.6205    0.0000 F   0  0  0  0  0  0  0  0  0  0  0  0
   -0.7446   -0.4583    0.0000 C   0  0  0  0  0  0  0  0  0  0  0  0
   -1.0489   -1.9271    0.0000 O   0  0  0  0  0  0  0  0  0  0  0  0
    0.5233    0.3433    0.0000 N   0  0  0  0  0  0  0  0  0  0  0  0
    1.8514   -0.3540    0.0000 C   0  0  0  0  0  0  0  0  0  0  0  0
    2.2074   -1.8112    0.0000 C   0  0  0  0  0  0  0  0  0  0  0  0
    2.9770   -3.0987    0.0000 C   0  0  0  0  0  0  0  0  0  0  0  0
    4.0920   -4.1021    0.0000 C   0  0  0  0  0  0  0  0  0  0  0  0
    5.4532   -4.7323    0.0000 C   0  0  0  0  0  0  0  0  0  0  0  0
    0.6696   -1.2778    0.0000 C   0  0  0  0  0  0  0  0  0  0  0  0
    1.9407    1.1433    0.0000 C   0  0  0  0  0  0  0  0  0  0  0  0
    0.6826    1.9601    0.0000 O   0  0  0  0  0  0  0  0  0  0  0  0
    2.4675    2.5478    0.0000 N   0  0  0  0  0  0  0  0  0  0  0  0
    3.3848    3.7346    0.0000 C   0  0  0  0  0  0  0  0  0  0  0  0
    3.1019    5.2077    0.0000 C   0  0  0  0  0  0  0  0  0  0  0  0
    1.6847    5.6992    0.0000 C   0  0  0  0  0  0  0  0  0  0  0  0
    1.4018    7.1723    0.0000 C   0  0  0  0  0  0  0  0  0  0  0  0
   -0.0154    7.6639    0.0000 N   0  0  0  0  0  0  0  0  0  0  0  0
   -0.2983    9.1370    0.0000 C   0  0  0  0  0  0  0  0  0  0  0  0
   -1.7154    9.6285    0.0000 N   0  0  0  0  0  0  0  0  0  0  0  0
    0.8360   10.1185    0.0000 N   0  0  0  0  0  0  0  0  0  0  0  0
    4.6111    4.5983    0.0000 C   0  0  0  0  0  0  0  0  0  0  0  0
    3.9398    5.9397    0.0000 O   0  0  0  0  0  0  0  0  0  0  0  0
    6.0376    5.0622    0.0000 N   0  0  0  0  0  0  0  0  0  0  0  0
    7.5374    5.0850    0.0000 C   0  0  0  0  0  0  0  0  0  0  0  0
    8.5128    6.2246    0.0000 C   0  0  0  0  0  0  0  0  0  0  0  0
    8.0135    7.6391    0.0000 C   0  0  0  0  0  0  0  0  0  0  0  0
    8.9888    8.7787    0.0000 C   0  0  0  0  0  0  0  0  0  0  0  0
    7.0605    8.7975    0.0000 C   0  0  0  0  0  0  0  0  0  0  0  0
    8.9774    4.6647    0.0000 C   0  0  0  0  0  0  0  0  0  0  0  0
    9.6076    6.0259    0.0000 O   0  0  0  0  0  0  0  0  0  0  0  0
   10.2294    3.8387    0.0000 N   0  0  0  0  0  0  0  0  0  0  0  0
   11.1824    2.6803    0.0000 C   0  0  0  0  0  0  0  0  0  0  0  0
   12.6815    2.6283    0.0000 C   0  0  0  0  0  0  0  0  0  0  0  0
   13.4760    3.9006    0.0000 C   0  0  0  0  0  0  0  0  0  0  0  0
   14.9751    3.8486    0.0000 C   0  0  0  0  0  0  0  0  0  0  0  0
   15.7697    5.1208    0.0000 C   0  0  0  0  0  0  0  0  0  0  0  0
   15.0652    6.4451    0.0000 C   0  0  0  0  0  0  0  0  0  0  0  0
   13.5661    6.4971    0.0000 C   0  0  0  0  0  0  0  0  0  0  0  0
   12.7715    5.2248    0.0000 C   0  0  0  0  0  0  0  0  0  0  0  0
   11.7515    1.2925    0.0000 C   0  0  0  0  0  0  0  0  0  0  0  0
   13.2087    1.6484    0.0000 O   0  0  0  0  0  0  0  0  0  0  0  0
   11.8864   -0.2015    0.0000 N   0  0  0  0  0  0  0  0  0  0  0  0
   11.5748   -1.6688    0.0000 C   0  0  0  0  0  0  0  0  0  0  0  0
   10.8447   -2.9791    0.0000 C   0  0  0  0  0  0  0  0  0  0  0  0
    9.7607   -4.0159    0.0000 C   0  0  0  0  0  0  0  0  0  0  0  0
    8.4193   -4.6872    0.0000 C   0  0  0  0  0  0  0  0  0  0  0  0
    6.9396   -4.9333    0.0000 C   0  0  0  0  0  0  0  0  0  0  0  0
   13.0404   -1.3492    0.0000 C   0  0  0  0  0  0  0  0  0  0  0  0
   12.4689   -2.8732    0.0000 C   0  0  0  0  0  0  0  0  0  0  0  0
   12.2236   -4.3530    0.0000 O   0  0  0  0  0  0  0  0  0  0  0  0
   13.9590   -2.7012    0.0000 N   0  0  0  0  0  0  0  0  0  0  0  0
   14.8530   -3.9057    0.0000 C   0  0  0  0  0  0  0  0  0  0  0  0
   15.2812   -5.3433    0.0000 C   0  0  0  0  0  0  0  0  0  0  0  0
   14.2502   -6.4328    0.0000 O   0  0  0  0  0  0  0  0  0  0  0  0
   16.3431   -3.7336    0.0000 C   0  0  0  0  0  0  0  0  0  0  0  0
   16.9392   -2.3572    0.0000 O   0  0  0  0  0  0  0  0  0  0  0  0
   17.2371   -4.9381    0.0000 N   0  0  0  0  0  0  0  0  0  0  0  0
   18.7272   -4.7661    0.0000 C   0  0  0  0  0  0  0  0  0  0  0  0
   20.0686   -4.0948    0.0000 C   0  0  0  0  0  0  0  0  0  0  0  0
   21.3207   -4.9208    0.0000 C   0  0  0  0  0  0  0  0  0  0  0  0
   21.2313   -6.4182    0.0000 C   0  0  0  0  0  0  0  0  0  0  0  0
   22.4834   -7.2442    0.0000 C   0  0  0  0  0  0  0  0  0  0  0  0
   23.8248   -6.5729    0.0000 C   0  0  0  0  0  0  0  0  0  0  0  0
   25.0769   -7.3990    0.0000 O   0  0  0  0  0  0  0  0  0  0  0  0
   23.9142   -5.0756    0.0000 C   0  0  0  0  0  0  0  0  0  0  0  0
   22.6621   -4.2495    0.0000 C   0  0  0  0  0  0  0  0  0  0  0  0
   19.6213   -5.9705    0.0000 C   0  0  0  0  0  0  0  0  0  0  0  0
   21.1087   -6.1642    0.0000 O   0  0  0  0  0  0  0  0  0  0  0  0
   18.8618   -7.2641    0.0000 O   0  0  0  0  0  0  0  0  0  0  0  0
  -18.6740   -2.6683    0.0000 H   0  0  0  0  0  0  0  0  0  0  0  0
  -19.0368    1.8096    0.0000 H   0  0  0  0  0  0  0  0  0  0  0  0
  -21.6930    3.2042    0.0000 H   0  0  0  0  0  0  0  0  0  0  0  0
  -21.0914   -2.7319    0.0000 H   0  0  0  0  0  0  0  0  0  0  0  0
  -27.9663   -4.7444    0.0000 H   0  0  0  0  0  0  0  0  0  0  0  0
  -29.2497    0.2908    0.0000 H   0  0  0  0  0  0  0  0  0  0  0  0
  -26.3426    1.0318    0.0000 H   0  0  0  0  0  0  0  0  0  0  0  0
  -31.1091   -1.5237    0.0000 H   0  0  0  0  0  0  0  0  0  0  0  0
  -21.3403   -0.3744    0.0000 H   0  0  0  0  0  0  0  0  0  0  0  0
  -19.2108   -2.7014    0.0000 H   0  0  0  0  0  0  0  0  0  0  0  0
  -22.9640   -6.1505    0.0000 H   0  0  0  0  0  0  0  0  0  0  0  0
  -20.4628   -6.8536    0.0000 H   0  0  0  0  0  0  0  0  0  0  0  0
  -16.2603   -2.5825    0.0000 H   0  0  0  0  0  0  0  0  0  0  0  0
  -14.1353    0.9046    0.0000 H   0  0  0  0  0  0  0  0  0  0  0  0
  -16.0621    0.8272    0.0000 H   0  0  0  0  0  0  0  0  0  0  0  0
  -12.7150   -2.0889    0.0000 H   0  0  0  0  0  0  0  0  0  0  0  0
  -14.6418   -2.1663    0.0000 H   0  0  0  0  0  0  0  0  0  0  0  0
  -11.0683   -2.3740    0.0000 H   0  0  0  0  0  0  0  0  0  0  0  0
  -10.8701    1.0357    0.0000 H   0  0  0  0  0  0  0  0  0  0  0  0
   -8.6649    2.5870    0.0000 H   0  0  0  0  0  0  0  0  0  0  0  0
  -10.2714    1.8104    0.0000 H   0  0  0  0  0  0  0  0  0  0  0  0
   -6.1288    0.2148    0.0000 H   0  0  0  0  0  0  0  0  0  0  0  0
   -7.1885   -0.5637    0.0000 H   0  0  0  0  0  0  0  0  0  0  0  0
   -6.0835    3.5279    0.0000 H   0  0  0  0  0  0  0  0  0  0  0  0
   -7.7727    2.9529    0.0000 H   0  0  0  0  0  0  0  0  0  0  0  0
   -4.1650    0.6891    0.0000 H   0  0  0  0  0  0  0  0  0  0  0  0
   -1.7320    4.0706    0.0000 H   0  0  0  0  0  0  0  0  0  0  0  0
   -2.2319    1.4313    0.0000 H   0  0  0  0  0  0  0  0  0  0  0  0
   -3.7876    5.6594    0.0000 H   0  0  0  0  0  0  0  0  0  0  0  0
   -6.1914    4.6736    0.0000 H   0  0  0  0  0  0  0  0  0  0  0  0
   -6.9604    1.4993    0.0000 H   0  0  0  0  0  0  0  0  0  0  0  0
   -6.9917   -1.7329    0.0000 H   0  0  0  0  0  0  0  0  0  0  0  0
   -3.5990   -2.4735    0.0000 H   0  0  0  0  0  0  0  0  0  0  0  0
   -3.7498   -0.8466    0.0000 H   0  0  0  0  0  0  0  0  0  0  0  0
   -6.3004   -4.3920    0.0000 H   0  0  0  0  0  0  0  0  0  0  0  0
   -6.7863   -2.6750    0.0000 H   0  0  0  0  0  0  0  0  0  0  0  0
   -3.0455   -5.0119    0.0000 H   0  0  0  0  0  0  0  0  0  0  0  0
   -3.3185   -3.2485    0.0000 H   0  0  0  0  0  0  0  0  0  0  0  0
   -6.2952   -6.0632    0.0000 H   0  0  0  0  0  0  0  0  0  0  0  0
   -3.2667   -9.3915    0.0000 H   0  0  0  0  0  0  0  0  0  0  0  0
   -5.7418   -8.6016    0.0000 H   0  0  0  0  0  0  0  0  0  0  0  0
   -1.3451   -7.6430    0.0000 H   0  0  0  0  0  0  0  0  0  0  0  0
   -1.8985   -5.1046    0.0000 H   0  0  0  0  0  0  0  0  0  0  0  0
   -3.0981   -2.0428    0.0000 H   0  0  0  0  0  0  0  0  0  0  0  0
   -3.0822    1.3485    0.0000 H   0  0  0  0  0  0  0  0  0  0  0  0
   -0.6993    2.8548    0.0000 H   0  0  0  0  0  0  0  0  0  0  0  0
   -2.6127    1.7810    0.0000 H   0  0  0  0  0  0  0  0  0  0  0  0
    0.6463    1.8382    0.0000 H   0  0  0  0  0  0  0  0  0  0  0  0
    0.7101   -1.9013    0.0000 H   0  0  0  0  0  0  0  0  0  0  0  0
    1.3504   -3.0422    0.0000 H   0  0  0  0  0  0  0  0  0  0  0  0
    1.5728   -3.6261    0.0000 H   0  0  0  0  0  0  0  0  0  0  0  0
    2.3502   -4.4614    0.0000 H   0  0  0  0  0  0  0  0  0  0  0  0
    2.8026   -4.8686    0.0000 H   0  0  0  0  0  0  0  0  0  0  0  0
    4.0774   -5.6020    0.0000 H   0  0  0  0  0  0  0  0  0  0  0  0
    5.0329   -6.1722    0.0000 H   0  0  0  0  0  0  0  0  0  0  0  0
    0.5131   -2.7696    0.0000 H   0  0  0  0  0  0  0  0  0  0  0  0
   -0.6022   -2.0731    0.0000 H   0  0  0  0  0  0  0  0  0  0  0  0
   -0.3344   -0.1634    0.0000 H   0  0  0  0  0  0  0  0  0  0  0  0
    1.2560    3.4322    0.0000 H   0  0  0  0  0  0  0  0  0  0  0  0
    1.8942    3.9022    0.0000 H   0  0  0  0  0  0  0  0  0  0  0  0
    3.5186    6.6486    0.0000 H   0  0  0  0  0  0  0  0  0  0  0  0
    4.5516    5.5927    0.0000 H   0  0  0  0  0  0  0  0  0  0  0  0
    0.1849    5.6764    0.0000 H   0  0  0  0  0  0  0  0  0  0  0  0
    1.0954    4.3198    0.0000 H   0  0  0  0  0  0  0  0  0  0  0  0
    1.6398    8.6533    0.0000 H   0  0  0  0  0  0  0  0  0  0  0  0
    2.8877    7.3778    0.0000 H   0  0  0  0  0  0  0  0  0  0  0  0
   -1.1497    6.6823    0.0000 H   0  0  0  0  0  0  0  0  0  0  0  0
   -1.9983   11.1016    0.0000 H   0  0  0  0  0  0  0  0  0  0  0  0
   -2.8497    8.6470    0.0000 H   0  0  0  0  0  0  0  0  0  0  0  0
    0.5531   11.5916    0.0000 H   0  0  0  0  0  0  0  0  0  0  0  0
    2.2532    9.6269    0.0000 H   0  0  0  0  0  0  0  0  0  0  0  0
    5.7915    6.5419    0.0000 H   0  0  0  0  0  0  0  0  0  0  0  0
    6.7390    6.3549    0.0000 H   0  0  0  0  0  0  0  0  0  0  0  0
    9.8992    6.7972    0.0000 H   0  0  0  0  0  0  0  0  0  0  0  0
    9.7177    5.3313    0.0000 H   0  0  0  0  0  0  0  0  0  0  0  0
    6.6271    7.0665    0.0000 H   0  0  0  0  0  0  0  0  0  0  0  0
    8.6656   10.2435    0.0000 H   0  0  0  0  0  0  0  0  0  0  0  0
   10.2951    9.5161    0.0000 H   0  0  0  0  0  0  0  0  0  0  0  0
   10.0758    7.7451    0.0000 H   0  0  0  0  0  0  0  0  0  0  0  0
    7.4121   10.2557    0.0000 H   0  0  0  0  0  0  0  0  0  0  0  0
    5.7688    9.5601    0.0000 H   0  0  0  0  0  0  0  0  0  0  0  0
    6.0852    7.6579    0.0000 H   0  0  0  0  0  0  0  0  0  0  0  0
   11.0894    5.0676    0.0000 H   0  0  0  0  0  0  0  0  0  0  0  0
   11.8463    4.0253    0.0000 H   0  0  0  0  0  0  0  0  0  0  0  0
   14.0724    2.0667    0.0000 H   0  0  0  0  0  0  0  0  0  0  0  0
   12.7343    1.1292    0.0000 H   0  0  0  0  0  0  0  0  0  0  0  0
   15.6797    2.5243    0.0000 H   0  0  0  0  0  0  0  0  0  0  0  0
   17.2688    5.0688    0.0000 H   0  0  0  0  0  0  0  0  0  0  0  0
   15.8598    7.7173    0.0000 H   0  0  0  0  0  0  0  0  0  0  0  0
   12.8616    7.8213    0.0000 H   0  0  0  0  0  0  0  0  0  0  0  0
   11.2899    5.4591    0.0000 H   0  0  0  0  0  0  0  0  0  0  0  0
   13.3837   -0.2908    0.0000 H   0  0  0  0  0  0  0  0  0  0  0  0
   11.3440   -4.3935    0.0000 H   0  0  0  0  0  0  0  0  0  0  0  0
   12.2643   -3.4636    0.0000 H   0  0  0  0  0  0  0  0  0  0  0  0
   10.0032   -5.4962    0.0000 H   0  0  0  0  0  0  0  0  0  0  0  0
   10.9744   -4.8974    0.0000 H   0  0  0  0  0  0  0  0  0  0  0  0
    8.0351   -6.1371    0.0000 H   0  0  0  0  0  0  0  0  0  0  0  0
    9.4589   -5.7686    0.0000 H   0  0  0  0  0  0  0  0  0  0  0  0
    6.9624   -6.4331    0.0000 H   0  0  0  0  0  0  0  0  0  0  0  0
   14.2884   -2.1814    0.0000 H   0  0  0  0  0  0  0  0  0  0  0  0
   14.2012   -0.3991    0.0000 H   0  0  0  0  0  0  0  0  0  0  0  0
   12.8240    0.1351    0.0000 H   0  0  0  0  0  0  0  0  0  0  0  0
   14.7184   -1.4076    0.0000 H   0  0  0  0  0  0  0  0  0  0  0  0
   13.5116   -4.5770    0.0000 H   0  0  0  0  0  0  0  0  0  0  0  0
   16.0217   -6.6477    0.0000 H   0  0  0  0  0  0  0  0  0  0  0  0
   16.7451   -5.0165    0.0000 H   0  0  0  0  0  0  0  0  0  0  0  0
   14.6784   -7.8704    0.0000 H   0  0  0  0  0  0  0  0  0  0  0  0
   16.8133   -6.3770    0.0000 H   0  0  0  0  0  0  0  0  0  0  0  0
   18.2991   -3.3285    0.0000 H   0  0  0  0  0  0  0  0  0  0  0  0
   21.0995   -3.0052    0.0000 H   0  0  0  0  0  0  0  0  0  0  0  0
   19.1746   -2.8903    0.0000 H   0  0  0  0  0  0  0  0  0  0  0  0
   19.9818   -7.2480    0.0000 H   0  0  0  0  0  0  0  0  0  0  0  0
   22.3941   -8.7415    0.0000 H   0  0  0  0  0  0  0  0  0  0  0  0
   26.4183   -6.7277    0.0000 H   0  0  0  0  0  0  0  0  0  0  0  0
   25.2556   -4.4043    0.0000 H   0  0  0  0  0  0  0  0  0  0  0  0
   22.7514   -2.7522    0.0000 H   0  0  0  0  0  0  0  0  0  0  0  0
  1  2  1  0
  2  3  1  0
  3  4  2  0
  4  5  1  0
  5  6  2  0
  6  7  1  0
  7  8  2  0
  7  9  1  0
  9 10  1  0
 10 11  1  0
 11 12  2  0
  9 13  1  0
 13 14  1  0
 14 15  2  0
 15 16  1  0
 16 17  2  0
 17 18  1  0
 16 19  1  0
 14 20  1  0
 20 21  1  0
 21 22  2  0
 22 23  1  0
 23 24  2  0
 24 25  1  0
 25 26  2  0
 25 27  1  0
  1 28  2  0
  1 29  1  0
 29 30  1  0
 30 31  1  0
 31 32  1  0
 32 33  2  0
 32 34  1  0
 34 35  1  0
 35 36  1  0
 36 37  1  0
 37 38  1  0
 38 39  1  0
 39 40  1  0
 40 41  2  3
 40 42  1  0
 35 43  1  0
 43 44  2  0
 43 45  1  0
 45 46  1  0
 46 47  1  0
 47 48  1  0
 48 49  1  0
 49 50  1  0
 50 51  1  0
 51 52  2  3
 51 53  1  0
 46 54  1  0
 54 55  2  0
 54 56  1  0
 56 57  1  0
 57 58  1  0
 58 59  1  0
 59 60  2  0
 60 61  1  0
 60 62  1  0
 62 63  1  0
 62 64  2  0
 64 65  1  0
 64 66  1  0
 66 67  1  0
 66 68  2  0
 68 69  1  0
 57 70  1  0
 70 71  2  0
 70 72  1  0
 73 72  1  6
 73 74  1  0
 74 75  1  0
 75 76  1  0
 76 77  1  0
 73 78  1  0
 73 79  1  0
 79 80  2  0
 79 81  1  0
 81 82  1  0
 82 83  1  0
 83 84  1  0
 84 85  1  0
 85 86  1  0
 86 87  1  0
 87 88  2  3
 87 89  1  0
 82 90  1  0
 90 91  2  0
 90 92  1  0
 92 93  1  0
 93 94  1  0
 94 95  1  0
 95 96  1  0
 95 97  1  0
 93 98  1  0
 98 99  2  0
 98100  1  0
100101  1  0
101102  1  0
102103  1  0
103104  2  0
104105  1  0
105106  2  0
106107  1  0
107108  2  0
101109  1  0
109110  2  0
109111  1  0
111112  1  0
112113  1  0
113114  1  0
114115  1  0
115116  1  0
112117  1  0
112118  1  6
118119  2  0
118120  1  0
120121  1  0
121122  1  0
122123  1  0
121124  1  0
124125  2  0
124126  1  0
126127  1  0
127128  1  0
128129  1  0
129130  2  0
130131  1  0
131132  2  0
132133  1  0
132134  1  0
134135  2  0
127136  1  0
136137  2  0
136138  1  0
  8  3  1  0
 68 59  1  0
108103  1  0
135129  1  0
 11  6  1  0
 18 13  2  0
 77116  2  0
 22  9  1  0
 26 21  1  0
  2139  1  0
  4140  1  0
  5141  1  0
  8142  1  0
 15143  1  0
 17144  1  0
 18145  1  0
 19146  1  0
 23147  1  0
 24148  1  0
 26149  1  0
 27150  1  0
 29151  1  0
 30152  1  0
 30153  1  0
 31154  1  0
 31155  1  0
 34156  1  0
 35157  1  1
 36158  1  0
 36159  1  0
 37160  1  0
 37161  1  0
 38162  1  0
 38163  1  0
 39164  1  0
 41165  1  0
 41166  1  0
 42167  1  0
 42168  1  0
 45169  1  0
 46170  1  6
 47171  1  0
 47172  1  0
 48173  1  0
 48174  1  0
 49175  1  0
 49176  1  0
 50177  1  0
 52178  1  0
 52179  1  0
 53180  1  0
 53181  1  0
 56182  1  0
 57183  1  6
 58184  1  0
 58185  1  0
 72186  1  0
 74187  1  0
 74188  1  0
 75189  1  0
 75190  1  0
 76191  1  0
 76192  1  0
 77193  1  0
 78194  1  0
 78195  1  0
 78196  1  0
 81197  1  0
 82198  1  1
 83199  1  0
 83200  1  0
 84201  1  0
 84202  1  0
 85203  1  0
 85204  1  0
 86205  1  0
 88206  1  0
 88207  1  0
 89208  1  0
 89209  1  0
 92210  1  0
 93211  1  1
 94212  1  0
 94213  1  0
 95214  1  0
 96215  1  0
 96216  1  0
 96217  1  0
 97218  1  0
 97219  1  0
 97220  1  0
100221  1  0
101222  1  1
102223  1  0
102224  1  0
104225  1  0
105226  1  0
106227  1  0
107228  1  0
108229  1  0
111230  1  0
113231  1  0
113232  1  0
114233  1  0
114234  1  0
115235  1  0
115236  1  0
116237  1  0
117238  1  0
117239  1  0
117240  1  0
120241  1  0
121242  1  6
122243  1  0
122244  1  0
123245  1  0
126246  1  0
127247  1  1
128248  1  0
128249  1  0
130250  1  0
131251  1  0
133252  1  0
134253  1  0
135254  1  0
M  CHG  4  41   1  52   1  88   1 138  -1
M  END
