
     RDKit          2D

418424  0  0  0  0  0  0  0  0999 V2000
   42.0660   -2.2019    0.0000 C   0  0  0  0  0  0  0  0  0  0  0  0
   43.4087   -1.5332    0.0000 N   0  0  0  0  0  0  0  0  0  0  0  0
   44.6591   -2.3617    0.0000 C   0  0  0  0  0  0  0  0  0  0  0  0
   44.5669   -3.8588    0.0000 C   0  0  0  0  0  0  0  0  0  0  0  0
   45.8174   -4.6873    0.0000 C   0  0  0  0  0  0  0  0  0  0  0  0
   47.1601   -4.0186    0.0000 C   0  0  0  0  0  0  0  0  0  0  0  0
   47.2523   -2.5214    0.0000 C   0  0  0  0  0  0  0  0  0  0  0  0
   46.0018   -1.6930    0.0000 C   0  0  0  0  0  0  0  0  0  0  0  0
   48.7047   -2.1465    0.0000 C   0  0  0  0  0  0  0  0  0  0  0  0
   49.5101   -3.4120    0.0000 O   0  0  0  0  0  0  0  0  0  0  0  0
   48.5554   -4.5690    0.0000 C   0  0  0  0  0  0  0  0  0  0  0  0
   48.9304   -6.0214    0.0000 O   0  0  0  0  0  0  0  0  0  0  0  0
   50.1883   -1.9255    0.0000 C   0  0  0  0  0  0  0  0  0  0  0  0
   50.7387   -0.5301    0.0000 C   0  0  0  0  0  0  0  0  0  0  0  0
   52.2223   -0.3090    0.0000 C   0  0  0  0  0  0  0  0  0  0  0  0
   53.1555   -1.4833    0.0000 C   0  0  0  0  0  0  0  0  0  0  0  0
   52.6052   -2.8787    0.0000 C   0  0  0  0  0  0  0  0  0  0  0  0
   51.1216   -3.0998    0.0000 C   0  0  0  0  0  0  0  0  0  0  0  0
   54.6392   -1.2623    0.0000 O   0  0  0  0  0  0  0  0  0  0  0  0
   49.8054    0.6443    0.0000 O   0  0  0  0  0  0  0  0  0  0  0  0
   48.3218    0.4232    0.0000 C   0  0  0  0  0  0  0  0  0  0  0  0
   47.7714   -0.9722    0.0000 C   0  0  0  0  0  0  0  0  0  0  0  0
   46.5446   -0.5421    0.0000 C   0  0  0  0  0  0  0  0  0  0  0  0
   46.0469    0.0842    0.0000 C   0  0  0  0  0  0  0  0  0  0  0  0
   46.3404    0.8284    0.0000 C   0  0  0  0  0  0  0  0  0  0  0  0
   47.1317    0.9463    0.0000 C   0  0  0  0  0  0  0  0  0  0  0  0
   44.9717    2.5508    0.0000 O   0  0  0  0  0  0  0  0  0  0  0  0
   41.9737   -3.6991    0.0000 S   0  0  0  0  0  0  0  0  0  0  0  0
   40.8155   -1.3735    0.0000 N   0  0  0  0  0  0  0  0  0  0  0  0
   39.4728   -2.0422    0.0000 C   0  0  0  0  0  0  0  0  0  0  0  0
   38.2223   -1.2137    0.0000 C   0  0  0  0  0  0  0  0  0  0  0  0
   36.8797   -1.8824    0.0000 C   0  0  0  0  0  0  0  0  0  0  0  0
   36.7874   -3.3796    0.0000 O   0  0  0  0  0  0  0  0  0  0  0  0
   35.6292   -1.0540    0.0000 N   0  0  0  0  0  0  0  0  0  0  0  0
   34.2865   -1.7227    0.0000 C   0  0  0  0  0  0  0  0  0  0  0  0
   33.2535   -2.8103    0.0000 C   0  0  0  0  0  0  0  0  0  0  0  0
   31.7662   -3.0055    0.0000 O   0  0  0  0  0  0  0  0  0  0  0  0
   33.0360   -0.8942    0.0000 C   0  0  0  0  0  0  0  0  0  0  0  0
   33.1283    0.6029    0.0000 O   0  0  0  0  0  0  0  0  0  0  0  0
   31.6933   -1.5629    0.0000 N   0  0  0  0  0  0  0  0  0  0  0  0
   30.4429   -0.7345    0.0000 C   0  0  0  0  0  0  0  0  0  0  0  0
   29.5512    0.4717    0.0000 C   0  0  0  0  0  0  0  0  0  0  0  0
   28.4110    1.4464    0.0000 O   0  0  0  0  0  0  0  0  0  0  0  0
   30.1499    1.8470    0.0000 C   0  0  0  0  0  0  0  0  0  0  0  0
   29.1002   -1.4032    0.0000 C   0  0  0  0  0  0  0  0  0  0  0  0
   29.0079   -2.9003    0.0000 O   0  0  0  0  0  0  0  0  0  0  0  0
   27.8497   -0.5747    0.0000 N   0  0  0  0  0  0  0  0  0  0  0  0
   26.5070   -1.2434    0.0000 C   0  0  0  0  0  0  0  0  0  0  0  0
   25.4740   -2.3310    0.0000 C   0  0  0  0  0  0  0  0  0  0  0  0
   25.2565   -0.4150    0.0000 C   0  0  0  0  0  0  0  0  0  0  0  0
   25.3488    1.0822    0.0000 O   0  0  0  0  0  0  0  0  0  0  0  0
   23.9139   -1.0837    0.0000 N   0  0  0  0  0  0  0  0  0  0  0  0
   22.6634   -0.2552    0.0000 C   0  0  0  0  0  0  0  0  0  0  0  0
   21.7717    0.9510    0.0000 C   0  0  0  0  0  0  0  0  0  0  0  0
   22.3704    2.3263    0.0000 C   0  0  0  0  0  0  0  0  0  0  0  0
   21.4787    3.5325    0.0000 C   0  0  0  0  0  0  0  0  0  0  0  0
   23.4034    3.4139    0.0000 C   0  0  0  0  0  0  0  0  0  0  0  0
   21.3207   -0.9239    0.0000 C   0  0  0  0  0  0  0  0  0  0  0  0
   21.2285   -2.4211    0.0000 O   0  0  0  0  0  0  0  0  0  0  0  0
   20.0702   -0.0954    0.0000 N   0  0  0  0  0  0  0  0  0  0  0  0
   18.7275   -0.7642    0.0000 C   0  0  0  0  0  0  0  0  0  0  0  0
   17.6945   -1.8518    0.0000 C   0  0  0  0  0  0  0  0  0  0  0  0
   16.2361   -1.5009    0.0000 C   0  0  0  0  0  0  0  0  0  0  0  0
   15.2031   -2.5886    0.0000 C   0  0  0  0  0  0  0  0  0  0  0  0
   13.7447   -2.2377    0.0000 N   0  0  0  0  0  0  0  0  0  0  0  0
   12.7117   -3.3253    0.0000 C   0  0  0  0  0  0  0  0  0  0  0  0
   11.3069   -2.7994    0.0000 N   0  0  0  0  0  0  0  0  0  0  0  0
   13.1371   -4.7638    0.0000 N   0  0  0  0  0  0  0  0  0  0  0  0
   17.4771    0.0643    0.0000 C   0  0  0  0  0  0  0  0  0  0  0  0
   17.5693    1.5615    0.0000 O   0  0  0  0  0  0  0  0  0  0  0  0
   16.1344   -0.6044    0.0000 N   0  0  0  0  0  0  0  0  0  0  0  0
   14.8839    0.2241    0.0000 C   0  0  0  0  0  0  0  0  0  0  0  0
   13.9922    1.4302    0.0000 C   0  0  0  0  0  0  0  0  0  0  0  0
   14.5909    2.8056    0.0000 C   0  0  0  0  0  0  0  0  0  0  0  0
   13.6992    4.0117    0.0000 C   0  0  0  0  0  0  0  0  0  0  0  0
   14.2980    5.3871    0.0000 O   0  0  0  0  0  0  0  0  0  0  0  0
   12.2088    3.8426    0.0000 O   0  0  0  0  0  0  0  0  0  0  0  0
   13.5412   -0.4446    0.0000 C   0  0  0  0  0  0  0  0  0  0  0  0
   13.2119   -1.4874    0.0000 O   0  0  0  0  0  0  0  0  0  0  0  0
   12.2907    0.3838    0.0000 N   0  0  0  0  0  0  0  0  0  0  0  0
   10.9481   -0.2849    0.0000 C   0  0  0  0  0  0  0  0  0  0  0  0
    9.9150   -1.3725    0.0000 C   0  0  0  0  0  0  0  0  0  0  0  0
    8.4566   -1.0217    0.0000 C   0  0  0  0  0  0  0  0  0  0  0  0
    7.4236   -2.1093    0.0000 C   0  0  0  0  0  0  0  0  0  0  0  0
    7.2062   -0.1932    0.0000 C   0  0  0  0  0  0  0  0  0  0  0  0
    9.6976    0.5436    0.0000 C   0  0  0  0  0  0  0  0  0  0  0  0
    9.7898    2.0407    0.0000 O   0  0  0  0  0  0  0  0  0  0  0  0
    8.3549   -0.1251    0.0000 N   0  0  0  0  0  0  0  0  0  0  0  0
    7.1044    0.7033    0.0000 C   0  0  0  0  0  0  0  0  0  0  0  0
    6.2127    1.9095    0.0000 C   0  0  0  0  0  0  0  0  0  0  0  0
    6.9746    3.2016    0.0000 C   0  0  0  0  0  0  0  0  0  0  0  0
    4.9623    2.7380    0.0000 C   0  0  0  0  0  0  0  0  0  0  0  0
    5.0545    4.2351    0.0000 C   0  0  0  0  0  0  0  0  0  0  0  0
    5.7617    0.0346    0.0000 C   0  0  0  0  0  0  0  0  0  0  0  0
    5.4877   -1.4401    0.0000 O   0  0  0  0  0  0  0  0  0  0  0  0
    4.5113    0.8631    0.0000 N   0  0  0  0  0  0  0  0  0  0  0  0
    3.1686    0.1944    0.0000 C   0  0  0  0  0  0  0  0  0  0  0  0
    2.1356   -0.8932    0.0000 C   0  0  0  0  0  0  0  0  0  0  0  0
    0.6772   -0.5424    0.0000 C   0  0  0  0  0  0  0  0  0  0  0  0
   -0.3559   -1.6300    0.0000 C   0  0  0  0  0  0  0  0  0  0  0  0
   -1.5630   -1.4920    0.0000 O   0  0  0  0  0  0  0  0  0  0  0  0
    0.0695   -3.0684    0.0000 O   0  0  0  0  0  0  0  0  0  0  0  0
    1.9181    1.0228    0.0000 C   0  0  0  0  0  0  0  0  0  0  0  0
    2.0103    2.5200    0.0000 O   0  0  0  0  0  0  0  0  0  0  0  0
    0.5754    0.3541    0.0000 N   0  0  0  0  0  0  0  0  0  0  0  0
   -0.6751    1.1826    0.0000 C   0  0  0  0  0  0  0  0  0  0  0  0
   -1.5668    2.3888    0.0000 C   0  0  0  0  0  0  0  0  0  0  0  0
   -0.9680    3.7641    0.0000 C   0  0  0  0  0  0  0  0  0  0  0  0
   -1.8597    4.9703    0.0000 C   0  0  0  0  0  0  0  0  0  0  0  0
   -1.2610    6.3456    0.0000 O   0  0  0  0  0  0  0  0  0  0  0  0
   -3.3502    4.8011    0.0000 O   0  0  0  0  0  0  0  0  0  0  0  0
   -2.0177    0.5139    0.0000 C   0  0  0  0  0  0  0  0  0  0  0  0
   -2.2397   -0.6807    0.0000 O   0  0  0  0  0  0  0  0  0  0  0  0
   -3.2682    1.3423    0.0000 N   0  0  0  0  0  0  0  0  0  0  0  0
   -4.6109    0.6736    0.0000 C   0  0  0  0  0  0  0  0  0  0  0  0
   -5.6439   -0.4140    0.0000 C   0  0  0  0  0  0  0  0  0  0  0  0
   -7.1023   -0.0632    0.0000 C   0  0  0  0  0  0  0  0  0  0  0  0
   -8.1353   -1.1508    0.0000 C   0  0  0  0  0  0  0  0  0  0  0  0
   -8.3528    0.7653    0.0000 C   0  0  0  0  0  0  0  0  0  0  0  0
   -5.8614    1.5021    0.0000 C   0  0  0  0  0  0  0  0  0  0  0  0
   -5.7691    2.9992    0.0000 O   0  0  0  0  0  0  0  0  0  0  0  0
   -7.2041    0.8334    0.0000 N   0  0  0  0  0  0  0  0  0  0  0  0
   -8.4545    1.6618    0.0000 C   0  0  0  0  0  0  0  0  0  0  0  0
   -9.3462    2.8680    0.0000 C   0  0  0  0  0  0  0  0  0  0  0  0
   -8.7475    4.2433    0.0000 C   0  0  0  0  0  0  0  0  0  0  0  0
   -9.7972    0.9931    0.0000 C   0  0  0  0  0  0  0  0  0  0  0  0
   -9.8895   -0.5040    0.0000 O   0  0  0  0  0  0  0  0  0  0  0  0
  -11.0477    1.8216    0.0000 N   0  0  0  0  0  0  0  0  0  0  0  0
  -12.3904    1.1529    0.0000 C   0  0  0  0  0  0  0  0  0  0  0  0
  -12.7775   -0.2963    0.0000 C   0  0  0  0  0  0  0  0  0  0  0  0
  -13.5745   -1.5670    0.0000 C   0  0  0  0  0  0  0  0  0  0  0  0
  -14.7106   -2.5464    0.0000 C   0  0  0  0  0  0  0  0  0  0  0  0
  -16.0850   -3.1473    0.0000 C   0  0  0  0  0  0  0  0  0  0  0  0
  -11.1216    0.3527    0.0000 C   0  0  0  0  0  0  0  0  0  0  0  0
  -12.4477    2.6518    0.0000 C   0  0  0  0  0  0  0  0  0  0  0  0
  -11.0856    3.2801    0.0000 O   0  0  0  0  0  0  0  0  0  0  0  0
  -12.9442    4.0672    0.0000 N   0  0  0  0  0  0  0  0  0  0  0  0
  -13.8359    5.2734    0.0000 C   0  0  0  0  0  0  0  0  0  0  0  0
  -13.5216    6.7401    0.0000 C   0  0  0  0  0  0  0  0  0  0  0  0
  -12.0487    7.0238    0.0000 C   0  0  0  0  0  0  0  0  0  0  0  0
  -13.7279    8.2258    0.0000 C   0  0  0  0  0  0  0  0  0  0  0  0
  -12.5443    9.1473    0.0000 C   0  0  0  0  0  0  0  0  0  0  0  0
  -15.0436    6.1632    0.0000 C   0  0  0  0  0  0  0  0  0  0  0  0
  -14.5107    7.5653    0.0000 O   0  0  0  0  0  0  0  0  0  0  0  0
  -16.4598    6.6574    0.0000 N   0  0  0  0  0  0  0  0  0  0  0  0
  -17.9588    6.7123    0.0000 C   0  0  0  0  0  0  0  0  0  0  0  0
  -18.9095    7.8725    0.0000 C   0  0  0  0  0  0  0  0  0  0  0  0
  -20.1997    8.6376    0.0000 O   0  0  0  0  0  0  0  0  0  0  0  0
  -18.3801    9.2760    0.0000 C   0  0  0  0  0  0  0  0  0  0  0  0
  -19.4074    6.3229    0.0000 C   0  0  0  0  0  0  0  0  0  0  0  0
  -20.0083    7.6973    0.0000 O   0  0  0  0  0  0  0  0  0  0  0  0
  -20.6768    5.5239    0.0000 N   0  0  0  0  0  0  0  0  0  0  0  0
  -21.6543    4.3861    0.0000 C   0  0  0  0  0  0  0  0  0  0  0  0
  -23.1542    4.3662    0.0000 C   0  0  0  0  0  0  0  0  0  0  0  0
  -23.9214    5.6552    0.0000 C   0  0  0  0  0  0  0  0  0  0  0  0
  -25.4212    5.6353    0.0000 C   0  0  0  0  0  0  0  0  0  0  0  0
  -26.1884    6.9242    0.0000 N   0  0  0  0  0  0  0  0  0  0  0  0
  -26.1539    4.3264    0.0000 O   0  0  0  0  0  0  0  0  0  0  0  0
  -22.2530    3.0108    0.0000 C   0  0  0  0  0  0  0  0  0  0  0  0
  -23.7022    3.3978    0.0000 O   0  0  0  0  0  0  0  0  0  0  0  0
  -22.4198    1.5201    0.0000 N   0  0  0  0  0  0  0  0  0  0  0  0
  -22.1397    0.0465    0.0000 C   0  0  0  0  0  0  0  0  0  0  0  0
  -21.4378   -1.2792    0.0000 C   0  0  0  0  0  0  0  0  0  0  0  0
  -20.3762   -2.3390    0.0000 C   0  0  0  0  0  0  0  0  0  0  0  0
  -19.0495   -3.0388    0.0000 C   0  0  0  0  0  0  0  0  0  0  0  0
  -17.5754   -3.3165    0.0000 C   0  0  0  0  0  0  0  0  0  0  0  0
  -23.5981    0.3973    0.0000 C   0  0  0  0  0  0  0  0  0  0  0  0
  -23.0593   -1.1386    0.0000 C   0  0  0  0  0  0  0  0  0  0  0  0
  -22.8457   -2.6233    0.0000 O   0  0  0  0  0  0  0  0  0  0  0  0
  -24.5454   -0.9347    0.0000 N   0  0  0  0  0  0  0  0  0  0  0  0
  -25.4650   -2.1198    0.0000 C   0  0  0  0  0  0  0  0  0  0  0  0
  -25.9238   -3.5479    0.0000 C   0  0  0  0  0  0  0  0  0  0  0  0
  -27.3900   -3.8646    0.0000 C   0  0  0  0  0  0  0  0  0  0  0  0
  -27.8488   -5.2927    0.0000 C   0  0  0  0  0  0  0  0  0  0  0  0
  -29.2655   -5.7858    0.0000 N   0  0  0  0  0  0  0  0  0  0  0  0
  -26.8414   -6.4041    0.0000 O   0  0  0  0  0  0  0  0  0  0  0  0
  -26.9511   -1.9159    0.0000 C   0  0  0  0  0  0  0  0  0  0  0  0
  -27.5176   -0.5270    0.0000 O   0  0  0  0  0  0  0  0  0  0  0  0
  -27.8707   -3.1010    0.0000 N   0  0  0  0  0  0  0  0  0  0  0  0
  -29.3567   -2.8971    0.0000 C   0  0  0  0  0  0  0  0  0  0  0  0
  -30.6835   -2.1973    0.0000 C   0  0  0  0  0  0  0  0  0  0  0  0
  -30.7408   -0.6984    0.0000 C   0  0  0  0  0  0  0  0  0  0  0  0
  -32.0675    0.0014    0.0000 C   0  0  0  0  0  0  0  0  0  0  0  0
  -32.1248    1.5003    0.0000 C   0  0  0  0  0  0  0  0  0  0  0  0
  -33.4515    2.2002    0.0000 N   0  0  0  0  0  0  0  0  0  0  0  0
  -30.2763   -4.0822    0.0000 C   0  0  0  0  0  0  0  0  0  0  0  0
  -29.9899   -5.1375    0.0000 O   0  0  0  0  0  0  0  0  0  0  0  0
  -31.7624   -3.8783    0.0000 N   0  0  0  0  0  0  0  0  0  0  0  0
  -32.6820   -5.0634    0.0000 C   0  0  0  0  0  0  0  0  0  0  0  0
  -32.9633   -6.5368    0.0000 C   0  0  0  0  0  0  0  0  0  0  0  0
  -34.1681   -4.8595    0.0000 C   0  0  0  0  0  0  0  0  0  0  0  0
  -34.7346   -3.4706    0.0000 O   0  0  0  0  0  0  0  0  0  0  0  0
  -35.0877   -6.0446    0.0000 N   0  0  0  0  0  0  0  0  0  0  0  0
  -34.6695   -7.4851    0.0000 C   0  0  0  0  0  0  0  0  0  0  0  0
  -35.9102   -8.3280    0.0000 C   0  0  0  0  0  0  0  0  0  0  0  0
  -37.0953   -7.4084    0.0000 C   0  0  0  0  0  0  0  0  0  0  0  0
  -36.5869   -5.9972    0.0000 C   0  0  0  0  0  0  0  0  0  0  0  0
  -38.0436   -5.6391    0.0000 C   0  0  0  0  0  0  0  0  0  0  0  0
  -39.2062   -6.5869    0.0000 O   0  0  0  0  0  0  0  0  0  0  0  0
  -38.4618   -4.1986    0.0000 N   0  0  0  0  0  0  0  0  0  0  0  0
  -39.9184   -3.8405    0.0000 C   0  0  0  0  0  0  0  0  0  0  0  0
  -41.4097   -4.0022    0.0000 C   0  0  0  0  0  0  0  0  0  0  0  0
  -42.2953   -2.7916    0.0000 C   0  0  0  0  0  0  0  0  0  0  0  0
  -43.7866   -2.9533    0.0000 C   0  0  0  0  0  0  0  0  0  0  0  0
  -42.7135   -1.3511    0.0000 C   0  0  0  0  0  0  0  0  0  0  0  0
  -40.3366   -2.4000    0.0000 C   0  0  0  0  0  0  0  0  0  0  0  0
  -41.7387   -1.8670    0.0000 O   0  0  0  0  0  0  0  0  0  0  0  0
  -39.2982   -1.3175    0.0000 O   0  0  0  0  0  0  0  0  0  0  0  0
   43.3177   -0.0360    0.0000 H   0  0  0  0  0  0  0  0  0  0  0  0
   43.2242   -4.5276    0.0000 H   0  0  0  0  0  0  0  0  0  0  0  0
   45.7251   -6.1845    0.0000 H   0  0  0  0  0  0  0  0  0  0  0  0
   45.8569   -0.9091    0.0000 H   0  0  0  0  0  0  0  0  0  0  0  0
   52.7727    1.0864    0.0000 H   0  0  0  0  0  0  0  0  0  0  0  0
   53.5384   -4.0530    0.0000 H   0  0  0  0  0  0  0  0  0  0  0  0
   50.5712   -4.4952    0.0000 H   0  0  0  0  0  0  0  0  0  0  0  0
   55.5724   -2.4366    0.0000 H   0  0  0  0  0  0  0  0  0  0  0  0
   45.7374   -2.5886    0.0000 H   0  0  0  0  0  0  0  0  0  0  0  0
   43.8550   -0.0575    0.0000 H   0  0  0  0  0  0  0  0  0  0  0  0
   47.9389    2.9929    0.0000 H   0  0  0  0  0  0  0  0  0  0  0  0
   45.5220    3.9462    0.0000 H   0  0  0  0  0  0  0  0  0  0  0  0
   40.9077    0.1237    0.0000 H   0  0  0  0  0  0  0  0  0  0  0  0
   38.4398   -3.1298    0.0000 H   0  0  0  0  0  0  0  0  0  0  0  0
   40.3645   -3.2484    0.0000 H   0  0  0  0  0  0  0  0  0  0  0  0
   37.3306   -0.0075    0.0000 H   0  0  0  0  0  0  0  0  0  0  0  0
   39.2554   -0.1261    0.0000 H   0  0  0  0  0  0  0  0  0  0  0  0
   35.7214    0.4432    0.0000 H   0  0  0  0  0  0  0  0  0  0  0  0
   35.1782   -2.9289    0.0000 H   0  0  0  0  0  0  0  0  0  0  0  0
   32.6547   -4.1856    0.0000 H   0  0  0  0  0  0  0  0  0  0  0  0
   34.5039   -3.6387    0.0000 H   0  0  0  0  0  0  0  0  0  0  0  0
   30.7621   -3.5471    0.0000 H   0  0  0  0  0  0  0  0  0  0  0  0
   31.4193   -3.0377    0.0000 H   0  0  0  0  0  0  0  0  0  0  0  0
   31.6008    0.2191    0.0000 H   0  0  0  0  0  0  0  0  0  0  0  0
   28.2857   -0.3336    0.0000 H   0  0  0  0  0  0  0  0  0  0  0  0
   28.2098    2.7974    0.0000 H   0  0  0  0  0  0  0  0  0  0  0  0
   29.4119    3.1529    0.0000 H   0  0  0  0  0  0  0  0  0  0  0  0
   31.1829    2.9346    0.0000 H   0  0  0  0  0  0  0  0  0  0  0  0
   31.4920    1.1772    0.0000 H   0  0  0  0  0  0  0  0  0  0  0  0
   27.7588    0.9225    0.0000 H   0  0  0  0  0  0  0  0  0  0  0  0
   27.3987   -2.4496    0.0000 H   0  0  0  0  0  0  0  0  0  0  0  0
   23.9868   -2.5263    0.0000 H   0  0  0  0  0  0  0  0  0  0  0  0
   24.8753   -3.7063    0.0000 H   0  0  0  0  0  0  0  0  0  0  0  0
   26.7245   -3.1595    0.0000 H   0  0  0  0  0  0  0  0  0  0  0  0
   23.6398   -2.5584    0.0000 H   0  0  0  0  0  0  0  0  0  0  0  0
   23.8213    0.6984    0.0000 H   0  0  0  0  0  0  0  0  0  0  0  0
   20.5212    1.7794    0.0000 H   0  0  0  0  0  0  0  0  0  0  0  0
   20.5062    0.1457    0.0000 H   0  0  0  0  0  0  0  0  0  0  0  0
   23.7125    1.6565    0.0000 H   0  0  0  0  0  0  0  0  0  0  0  0
   21.9053    4.9705    0.0000 H   0  0  0  0  0  0  0  0  0  0  0  0
   20.2283    4.3609    0.0000 H   0  0  0  0  0  0  0  0  0  0  0  0
   20.3208    2.5789    0.0000 H   0  0  0  0  0  0  0  0  0  0  0  0
   23.1566    4.8935    0.0000 H   0  0  0  0  0  0  0  0  0  0  0  0
   24.7461    4.0826    0.0000 H   0  0  0  0  0  0  0  0  0  0  0  0
   24.2951    2.2077    0.0000 H   0  0  0  0  0  0  0  0  0  0  0  0
   19.9793    1.4018    0.0000 H   0  0  0  0  0  0  0  0  0  0  0  0
   19.6192   -1.9703    0.0000 H   0  0  0  0  0  0  0  0  0  0  0  0
   17.2679   -3.2898    0.0000 H   0  0  0  0  0  0  0  0  0  0  0  0
   18.9450   -2.6802    0.0000 H   0  0  0  0  0  0  0  0  0  0  0  0
   14.9857   -0.6725    0.0000 H   0  0  0  0  0  0  0  0  0  0  0  0
   16.1189   -0.0055    0.0000 H   0  0  0  0  0  0  0  0  0  0  0  0
   14.6044   -3.9639    0.0000 H   0  0  0  0  0  0  0  0  0  0  0  0
   16.3433   -3.5633    0.0000 H   0  0  0  0  0  0  0  0  0  0  0  0
   12.9839   -0.9450    0.0000 H   0  0  0  0  0  0  0  0  0  0  0  0
   10.2203   -4.0621    0.0000 H   0  0  0  0  0  0  0  0  0  0  0  0
   12.1041   -5.8514    0.0000 H   0  0  0  0  0  0  0  0  0  0  0  0
   14.5955   -5.1146    0.0000 H   0  0  0  0  0  0  0  0  0  0  0  0
   15.6826   -2.0348    0.0000 H   0  0  0  0  0  0  0  0  0  0  0  0
   16.0418    1.1776    0.0000 H   0  0  0  0  0  0  0  0  0  0  0  0
   12.8521    2.4049    0.0000 H   0  0  0  0  0  0  0  0  0  0  0  0
   12.7267    0.6249    0.0000 H   0  0  0  0  0  0  0  0  0  0  0  0
   15.6239    3.8932    0.0000 H   0  0  0  0  0  0  0  0  0  0  0  0
   15.9331    2.1357    0.0000 H   0  0  0  0  0  0  0  0  0  0  0  0
   11.3171    5.0488    0.0000 H   0  0  0  0  0  0  0  0  0  0  0  0
   12.1998    1.8811    0.0000 H   0  0  0  0  0  0  0  0  0  0  0  0
   11.8398   -1.4911    0.0000 H   0  0  0  0  0  0  0  0  0  0  0  0
    9.4884   -2.8106    0.0000 H   0  0  0  0  0  0  0  0  0  0  0  0
   11.2572   -2.0424    0.0000 H   0  0  0  0  0  0  0  0  0  0  0  0
    8.3394    0.4737    0.0000 H   0  0  0  0  0  0  0  0  0  0  0  0
    5.9237   -2.1218    0.0000 H   0  0  0  0  0  0  0  0  0  0  0  0
    6.8249   -3.4846    0.0000 H   0  0  0  0  0  0  0  0  0  0  0  0
    8.5638   -3.0840    0.0000 H   0  0  0  0  0  0  0  0  0  0  0  0
    6.9334    1.2818    0.0000 H   0  0  0  0  0  0  0  0  0  0  0  0
    5.7189   -0.3885    0.0000 H   0  0  0  0  0  0  0  0  0  0  0  0
    6.4443   -1.4853    0.0000 H   0  0  0  0  0  0  0  0  0  0  0  0
    7.9031   -1.5555    0.0000 H   0  0  0  0  0  0  0  0  0  0  0  0
    8.2623    1.6569    0.0000 H   0  0  0  0  0  0  0  0  0  0  0  0
    4.8585    1.2644    0.0000 H   0  0  0  0  0  0  0  0  0  0  0  0
    6.0848    4.6100    0.0000 H   0  0  0  0  0  0  0  0  0  0  0  0
    7.8445    4.3724    0.0000 H   0  0  0  0  0  0  0  0  0  0  0  0
    8.1536    2.6150    0.0000 H   0  0  0  0  0  0  0  0  0  0  0  0
    3.5039    3.0888    0.0000 H   0  0  0  0  0  0  0  0  0  0  0  0
    4.0485    1.5484    0.0000 H   0  0  0  0  0  0  0  0  0  0  0  0
    3.8040    5.0636    0.0000 H   0  0  0  0  0  0  0  0  0  0  0  0
    5.6532    5.6104    0.0000 H   0  0  0  0  0  0  0  0  0  0  0  0
    6.5544    4.2476    0.0000 H   0  0  0  0  0  0  0  0  0  0  0  0
    4.2385    2.3381    0.0000 H   0  0  0  0  0  0  0  0  0  0  0  0
    4.0603   -1.0118    0.0000 H   0  0  0  0  0  0  0  0  0  0  0  0
    1.5368   -2.2686    0.0000 H   0  0  0  0  0  0  0  0  0  0  0  0
    3.3860   -1.7217    0.0000 H   0  0  0  0  0  0  0  0  0  0  0  0
   -0.5733    0.2860    0.0000 H   0  0  0  0  0  0  0  0  0  0  0  0
    0.5600    0.9530    0.0000 H   0  0  0  0  0  0  0  0  0  0  0  0
   -0.9635   -4.1561    0.0000 H   0  0  0  0  0  0  0  0  0  0  0  0
    0.1236   -1.0762    0.0000 H   0  0  0  0  0  0  0  0  0  0  0  0
    0.4828    2.1362    0.0000 H   0  0  0  0  0  0  0  0  0  0  0  0
   -2.7069    3.3635    0.0000 H   0  0  0  0  0  0  0  0  0  0  0  0
   -2.8322    1.5834    0.0000 H   0  0  0  0  0  0  0  0  0  0  0  0
    0.0650    4.8517    0.0000 H   0  0  0  0  0  0  0  0  0  0  0  0
    0.3741    3.0942    0.0000 H   0  0  0  0  0  0  0  0  0  0  0  0
   -4.2419    6.0073    0.0000 H   0  0  0  0  0  0  0  0  0  0  0  0
   -3.3592    2.8396    0.0000 H   0  0  0  0  0  0  0  0  0  0  0  0
   -3.7192   -0.5325    0.0000 H   0  0  0  0  0  0  0  0  0  0  0  0
   -6.0705   -1.8520    0.0000 H   0  0  0  0  0  0  0  0  0  0  0  0
   -4.3935   -1.2424    0.0000 H   0  0  0  0  0  0  0  0  0  0  0  0
   -7.2195    1.4323    0.0000 H   0  0  0  0  0  0  0  0  0  0  0  0
   -9.6226   -1.3460    0.0000 H   0  0  0  0  0  0  0  0  0  0  0  0
   -8.7341   -2.5261    0.0000 H   0  0  0  0  0  0  0  0  0  0  0  0
   -6.9952   -2.1255    0.0000 H   0  0  0  0  0  0  0  0  0  0  0  0
   -8.6256    2.2403    0.0000 H   0  0  0  0  0  0  0  0  0  0  0  0
   -9.8527    0.7528    0.0000 H   0  0  0  0  0  0  0  0  0  0  0  0
   -9.1147   -0.5268    0.0000 H   0  0  0  0  0  0  0  0  0  0  0  0
   -7.6558   -0.5970    0.0000 H   0  0  0  0  0  0  0  0  0  0  0  0
   -7.2966    2.6154    0.0000 H   0  0  0  0  0  0  0  0  0  0  0  0
  -10.3591    3.9744    0.0000 H   0  0  0  0  0  0  0  0  0  0  0  0
  -10.6117    2.0627    0.0000 H   0  0  0  0  0  0  0  0  0  0  0  0
   -9.6392    5.4495    0.0000 H   0  0  0  0  0  0  0  0  0  0  0  0
   -7.7145    5.3310    0.0000 H   0  0  0  0  0  0  0  0  0  0  0  0
   -7.4054    3.5735    0.0000 H   0  0  0  0  0  0  0  0  0  0  0  0
  -10.9555    3.3188    0.0000 H   0  0  0  0  0  0  0  0  0  0  0  0
  -11.2787   -0.2353    0.0000 H   0  0  0  0  0  0  0  0  0  0  0  0
  -11.9470   -1.5454    0.0000 H   0  0  0  0  0  0  0  0  0  0  0  0
  -12.1819   -2.1244    0.0000 H   0  0  0  0  0  0  0  0  0  0  0  0
  -12.9769   -2.9429    0.0000 H   0  0  0  0  0  0  0  0  0  0  0  0
  -13.4380   -3.3403    0.0000 H   0  0  0  0  0  0  0  0  0  0  0  0
  -14.7281   -4.0463    0.0000 H   0  0  0  0  0  0  0  0  0  0  0  0
  -15.6956   -4.5959    0.0000 H   0  0  0  0  0  0  0  0  0  0  0  0
  -11.0649   -1.3122    0.0000 H   0  0  0  0  0  0  0  0  0  0  0  0
  -10.0069   -0.5879    0.0000 H   0  0  0  0  0  0  0  0  0  0  0  0
  -10.2338    1.3270    0.0000 H   0  0  0  0  0  0  0  0  0  0  0  0
  -11.6186    4.7692    0.0000 H   0  0  0  0  0  0  0  0  0  0  0  0
  -12.3421    5.4090    0.0000 H   0  0  0  0  0  0  0  0  0  0  0  0
  -14.9628    7.1561    0.0000 H   0  0  0  0  0  0  0  0  0  0  0  0
  -11.5815    8.6229    0.0000 H   0  0  0  0  0  0  0  0  0  0  0  0
  -10.5952    7.1463    0.0000 H   0  0  0  0  0  0  0  0  0  0  0  0
  -11.7084    5.7517    0.0000 H   0  0  0  0  0  0  0  0  0  0  0  0
  -14.4298    9.5515    0.0000 H   0  0  0  0  0  0  0  0  0  0  0  0
  -15.2008    7.9422    0.0000 H   0  0  0  0  0  0  0  0  0  0  0  0
  -12.7505   10.6331    0.0000 H   0  0  0  0  0  0  0  0  0  0  0  0
  -11.1169    9.6085    0.0000 H   0  0  0  0  0  0  0  0  0  0  0  0
  -11.5424    8.0310    0.0000 H   0  0  0  0  0  0  0  0  0  0  0  0
  -16.1821    8.1315    0.0000 H   0  0  0  0  0  0  0  0  0  0  0  0
  -17.1334    7.9648    0.0000 H   0  0  0  0  0  0  0  0  0  0  0  0
  -20.1333    7.0051    0.0000 H   0  0  0  0  0  0  0  0  0  0  0  0
  -20.3652   10.1285    0.0000 H   0  0  0  0  0  0  0  0  0  0  0  0
  -19.1823   10.5435    0.0000 H   0  0  0  0  0  0  0  0  0  0  0  0
  -17.4025   10.4138    0.0000 H   0  0  0  0  0  0  0  0  0  0  0  0
  -17.0062    8.6739    0.0000 H   0  0  0  0  0  0  0  0  0  0  0  0
  -21.6561    6.6600    0.0000 H   0  0  0  0  0  0  0  0  0  0  0  0
  -22.1189    5.8123    0.0000 H   0  0  0  0  0  0  0  0  0  0  0  0
  -24.5568    3.8345    0.0000 H   0  0  0  0  0  0  0  0  0  0  0  0
  -23.2390    2.8686    0.0000 H   0  0  0  0  0  0  0  0  0  0  0  0
  -24.2014    7.1288    0.0000 H   0  0  0  0  0  0  0  0  0  0  0  0
  -22.5940    6.3539    0.0000 H   0  0  0  0  0  0  0  0  0  0  0  0
  -27.6883    6.9043    0.0000 H   0  0  0  0  0  0  0  0  0  0  0  0
  -25.4557    8.2331    0.0000 H   0  0  0  0  0  0  0  0  0  0  0  0
  -23.9187    1.4628    0.0000 H   0  0  0  0  0  0  0  0  0  0  0  0
  -21.9672   -2.6826    0.0000 H   0  0  0  0  0  0  0  0  0  0  0  0
  -22.8674   -1.7332    0.0000 H   0  0  0  0  0  0  0  0  0  0  0  0
  -20.6503   -3.8137    0.0000 H   0  0  0  0  0  0  0  0  0  0  0  0
  -21.6085   -3.1942    0.0000 H   0  0  0  0  0  0  0  0  0  0  0  0
  -18.6964   -4.4966    0.0000 H   0  0  0  0  0  0  0  0  0  0  0  0
  -20.1119   -4.0977    0.0000 H   0  0  0  0  0  0  0  0  0  0  0  0
  -17.6303   -4.8155    0.0000 H   0  0  0  0  0  0  0  0  0  0  0  0
  -24.8636   -0.4081    0.0000 H   0  0  0  0  0  0  0  0  0  0  0  0
  -24.7383    1.3720    0.0000 H   0  0  0  0  0  0  0  0  0  0  0  0
  -23.3500    1.8766    0.0000 H   0  0  0  0  0  0  0  0  0  0  0  0
  -25.2770    0.3748    0.0000 H   0  0  0  0  0  0  0  0  0  0  0  0
  -24.1383   -2.8196    0.0000 H   0  0  0  0  0  0  0  0  0  0  0  0
  -25.8665   -5.0468    0.0000 H   0  0  0  0  0  0  0  0  0  0  0  0
  -24.4377   -3.7518    0.0000 H   0  0  0  0  0  0  0  0  0  0  0  0
  -28.8761   -3.6608    0.0000 H   0  0  0  0  0  0  0  0  0  0  0  0
  -28.1444   -2.5681    0.0000 H   0  0  0  0  0  0  0  0  0  0  0  0
  -29.7738   -7.0375    0.0000 H   0  0  0  0  0  0  0  0  0  0  0  0
  -30.6026   -4.7920    0.0000 H   0  0  0  0  0  0  0  0  0  0  0  0
  -27.6571   -4.5857    0.0000 H   0  0  0  0  0  0  0  0  0  0  0  0
  -28.7273   -1.5356    0.0000 H   0  0  0  0  0  0  0  0  0  0  0  0
  -32.1696   -1.9934    0.0000 H   0  0  0  0  0  0  0  0  0  0  0  0
  -31.4742   -3.4719    0.0000 H   0  0  0  0  0  0  0  0  0  0  0  0
  -30.1113    0.6631    0.0000 H   0  0  0  0  0  0  0  0  0  0  0  0
  -29.2409   -0.7196    0.0000 H   0  0  0  0  0  0  0  0  0  0  0  0
  -33.5536    0.2053    0.0000 H   0  0  0  0  0  0  0  0  0  0  0  0
  -32.6970   -1.3601    0.0000 H   0  0  0  0  0  0  0  0  0  0  0  0
  -31.6660    2.9284    0.0000 H   0  0  0  0  0  0  0  0  0  0  0  0
  -30.6250    1.4791    0.0000 H   0  0  0  0  0  0  0  0  0  0  0  0
  -33.5088    3.6991    0.0000 H   0  0  0  0  0  0  0  0  0  0  0  0
  -34.7210    1.4011    0.0000 H   0  0  0  0  0  0  0  0  0  0  0  0
  -32.4940   -2.5688    0.0000 H   0  0  0  0  0  0  0  0  0  0  0  0
  -31.3553   -5.7632    0.0000 H   0  0  0  0  0  0  0  0  0  0  0  0
  -34.2866   -7.4596    0.0000 H   0  0  0  0  0  0  0  0  0  0  0  0
  -33.0835   -7.9904    0.0000 H   0  0  0  0  0  0  0  0  0  0  0  0
  -31.6547   -6.6954    0.0000 H   0  0  0  0  0  0  0  0  0  0  0  0
  -33.2219   -7.0921    0.0000 H   0  0  0  0  0  0  0  0  0  0  0  0
  -33.9609   -8.8072    0.0000 H   0  0  0  0  0  0  0  0  0  0  0  0
  -34.9423   -9.4739    0.0000 H   0  0  0  0  0  0  0  0  0  0  0  0
  -36.9487   -9.4104    0.0000 H   0  0  0  0  0  0  0  0  0  0  0  0
  -37.8860   -8.6831    0.0000 H   0  0  0  0  0  0  0  0  0  0  0  0
  -38.5152   -6.9248    0.0000 H   0  0  0  0  0  0  0  0  0  0  0  0
  -36.3831   -4.5111    0.0000 H   0  0  0  0  0  0  0  0  0  0  0  0
  -37.4233   -3.1161    0.0000 H   0  0  0  0  0  0  0  0  0  0  0  0
  -40.0181   -5.3372    0.0000 H   0  0  0  0  0  0  0  0  0  0  0  0
  -42.6649   -4.8234    0.0000 H   0  0  0  0  0  0  0  0  0  0  0  0
  -40.9914   -5.4427    0.0000 H   0  0  0  0  0  0  0  0  0  0  0  0
  -41.2761   -1.6911    0.0000 H   0  0  0  0  0  0  0  0  0  0  0  0
  -44.8132   -1.8597    0.0000 H   0  0  0  0  0  0  0  0  0  0  0  0
  -45.1326   -3.6153    0.0000 H   0  0  0  0  0  0  0  0  0  0  0  0
  -43.5471   -4.4341    0.0000 H   0  0  0  0  0  0  0  0  0  0  0  0
  -44.1157   -0.8181    0.0000 H   0  0  0  0  0  0  0  0  0  0  0  0
  -42.6138    0.1456    0.0000 H   0  0  0  0  0  0  0  0  0  0  0  0
  -41.2223   -1.1894    0.0000 H   0  0  0  0  0  0  0  0  0  0  0  0
  -39.7164    0.1230    0.0000 H   0  0  0  0  0  0  0  0  0  0  0  0
  1  2  1  0
  2  3  1  0
  3  4  2  0
  4  5  1  0
  5  6  2  0
  6  7  1  0
  7  8  2  0
  7  9  1  0
  9 10  1  0
 10 11  1  0
 11 12  2  0
  9 13  1  0
 13 14  1  0
 14 15  2  0
 15 16  1  0
 16 17  2  0
 17 18  1  0
 16 19  1  0
 14 20  1  0
 20 21  1  0
 21 22  2  0
 22 23  1  0
 23 24  2  0
 24 25  1  0
 25 26  2  0
 25 27  1  0
  1 28  2  0
  1 29  1  0
 29 30  1  0
 30 31  1  0
 31 32  1  0
 32 33  2  0
 32 34  1  0
 34 35  1  0
 35 36  1  0
 36 37  1  0
 35 38  1  0
 38 39  2  0
 38 40  1  0
 40 41  1  0
 41 42  1  0
 42 43  1  0
 42 44  1  0
 41 45  1  0
 45 46  2  0
 45 47  1  0
 47 48  1  0
 48 49  1  0
 48 50  1  0
 50 51  2  0
 50 52  1  0
 52 53  1  0
 53 54  1  0
 54 55  1  0
 55 56  1  0
 55 57  1  0
 53 58  1  0
 58 59  2  0
 58 60  1  0
 60 61  1  0
 61 62  1  0
 62 63  1  0
 63 64  1  0
 64 65  1  0
 65 66  1  0
 66 67  2  3
 66 68  1  0
 61 69  1  0
 69 70  2  0
 69 71  1  0
 71 72  1  0
 72 73  1  0
 73 74  1  0
 74 75  1  0
 75 76  2  0
 75 77  1  0
 72 78  1  0
 78 79  2  0
 78 80  1  0
 80 81  1  0
 81 82  1  0
 82 83  1  0
 83 84  1  0
 83 85  1  0
 81 86  1  0
 86 87  2  0
 86 88  1  0
 88 89  1  0
 89 90  1  0
 90 91  1  0
 90 92  1  0
 92 93  1  0
 89 94  1  0
 94 95  2  0
 94 96  1  0
 96 97  1  0
 97 98  1  0
 98 99  1  0
 99100  1  0
100101  2  0
100102  1  0
 97103  1  0
103104  2  0
103105  1  0
105106  1  0
106107  1  0
107108  1  0
108109  1  0
109110  2  0
109111  1  0
106112  1  0
112113  2  0
112114  1  0
114115  1  0
115116  1  0
116117  1  0
117118  1  0
117119  1  0
115120  1  0
120121  2  0
120122  1  0
122123  1  0
123124  1  0
124125  1  0
123126  1  0
126127  2  0
126128  1  0
129128  1  1
129130  1  0
130131  1  0
131132  1  0
132133  1  0
129134  1  0
129135  1  0
135136  2  0
135137  1  0
137138  1  0
138139  1  0
139140  1  0
139141  1  0
141142  1  0
138143  1  0
143144  2  0
143145  1  0
145146  1  0
146147  1  0
147148  1  0
147149  1  0
146150  1  0
150151  2  0
150152  1  0
152153  1  0
153154  1  0
154155  1  0
155156  1  0
156157  1  0
156158  2  0
153159  1  0
159160  2  0
159161  1  0
161162  1  0
162163  1  0
163164  1  0
164165  1  0
165166  1  0
162167  1  0
162168  1  1
168169  2  0
168170  1  0
170171  1  0
171172  1  0
172173  1  0
173174  1  0
174175  1  0
174176  2  0
171177  1  0
177178  2  0
177179  1  0
179180  1  0
180181  1  0
181182  1  0
182183  1  0
183184  1  0
184185  1  0
180186  1  0
186187  2  0
186188  1  0
188189  1  0
189190  1  0
189191  1  0
191192  2  0
191193  1  0
193194  1  0
194195  1  0
195196  1  0
196197  1  0
197198  1  0
198199  2  0
198200  1  0
200201  1  0
201202  1  0
202203  1  0
203204  1  0
203205  1  0
201206  1  0
206207  2  0
206208  1  0
  8  3  1  0
197193  1  0
 11  6  1  0
133166  2  0
 18 13  2  0
 22  9  1  0
 26 21  1  0
  2209  1  0
  4210  1  0
  5211  1  0
  8212  1  0
 15213  1  0
 17214  1  0
 18215  1  0
 19216  1  0
 23217  1  0
 24218  1  0
 26219  1  0
 27220  1  0
 29221  1  0
 30222  1  0
 30223  1  0
 31224  1  0
 31225  1  0
 34226  1  0
 35227  1  1
 36228  1  0
 36229  1  0
 37230  1  0
 40231  1  0
 41232  1  6
 42233  1  1
 43234  1  0
 44235  1  0
 44236  1  0
 44237  1  0
 47238  1  0
 48239  1  1
 49240  1  0
 49241  1  0
 49242  1  0
 52243  1  0
 53244  1  6
 54245  1  0
 54246  1  0
 55247  1  0
 56248  1  0
 56249  1  0
 56250  1  0
 57251  1  0
 57252  1  0
 57253  1  0
 60254  1  0
 61255  1  1
 62256  1  0
 62257  1  0
 63258  1  0
 63259  1  0
 64260  1  0
 64261  1  0
 65262  1  0
 67263  1  0
 68264  1  0
 68265  1  0
 71266  1  0
 72267  1  6
 73268  1  0
 73269  1  0
 74270  1  0
 74271  1  0
 77272  1  0
 80273  1  0
 81274  1  1
 82275  1  0
 82276  1  0
 83277  1  0
 84278  1  0
 84279  1  0
 84280  1  0
 85281  1  0
 85282  1  0
 85283  1  0
 88284  1  0
 89285  1  6
 90286  1  1
 91287  1  0
 91288  1  0
 91289  1  0
 92290  1  0
 92291  1  0
 93292  1  0
 93293  1  0
 93294  1  0
 96295  1  0
 97296  1  1
 98297  1  0
 98298  1  0
 99299  1  0
 99300  1  0
102301  1  0
105302  1  0
106303  1  6
107304  1  0
107305  1  0
108306  1  0
108307  1  0
111308  1  0
114309  1  0
115310  1  1
116311  1  0
116312  1  0
117313  1  0
118314  1  0
118315  1  0
118316  1  0
119317  1  0
119318  1  0
119319  1  0
122320  1  0
123321  1  6
124322  1  0
124323  1  0
125324  1  0
125325  1  0
125326  1  0
128327  1  0
130328  1  0
130329  1  0
131330  1  0
131331  1  0
132332  1  0
132333  1  0
133334  1  0
134335  1  0
134336  1  0
134337  1  0
137338  1  0
138339  1  6
139340  1  1
140341  1  0
140342  1  0
140343  1  0
141344  1  0
141345  1  0
142346  1  0
142347  1  0
142348  1  0
145349  1  0
146350  1  6
147351  1  1
148352  1  0
149353  1  0
149354  1  0
149355  1  0
152356  1  0
153357  1  6
154358  1  0
154359  1  0
155360  1  0
155361  1  0
157362  1  0
157363  1  0
161364  1  0
163365  1  0
163366  1  0
164367  1  0
164368  1  0
165369  1  0
165370  1  0
166371  1  0
167372  1  0
167373  1  0
167374  1  0
170375  1  0
171376  1  1
172377  1  0
172378  1  0
173379  1  0
173380  1  0
175381  1  0
175382  1  0
179383  1  0
180384  1  6
181385  1  0
181386  1  0
182387  1  0
182388  1  0
183389  1  0
183390  1  0
184391  1  0
184392  1  0
185393  1  0
185394  1  0
188395  1  0
189396  1  1
190397  1  0
190398  1  0
190399  1  0
194400  1  0
194401  1  0
195402  1  0
195403  1  0
196404  1  0
196405  1  0
197406  1  0
200407  1  0
201408  1  1
202409  1  0
202410  1  0
203411  1  0
204412  1  0
204413  1  0
204414  1  0
205415  1  0
205416  1  0
205417  1  0
208418  1  0
M  END
