
     RDKit          2D

273276  0  0  0  0  0  0  0  0999 V2000
  -18.5190   -6.8013    0.0000 N   0  0  0  0  0  0  0  0  0  0  0  0
  -17.0219   -6.7081    0.0000 C   0  0  0  0  0  0  0  0  0  0  0  0
  -16.3541   -5.3649    0.0000 C   0  0  0  0  0  0  0  0  0  0  0  0
  -14.8570   -5.2717    0.0000 C   0  0  0  0  0  0  0  0  0  0  0  0
  -14.1862   -6.6134    0.0000 O   0  0  0  0  0  0  0  0  0  0  0  0
  -14.1892   -3.9286    0.0000 N   0  0  0  0  0  0  0  0  0  0  0  0
  -12.6921   -3.8353    0.0000 C   0  0  0  0  0  0  0  0  0  0  0  0
  -11.6315   -4.8961    0.0000 C   0  0  0  0  0  0  0  0  0  0  0  0
  -10.3055   -5.5972    0.0000 C   0  0  0  0  0  0  0  0  0  0  0  0
   -8.8317   -5.8763    0.0000 C   0  0  0  0  0  0  0  0  0  0  0  0
   -7.3411   -5.7085    0.0000 C   0  0  0  0  0  0  0  0  0  0  0  0
  -13.3899   -5.1631    0.0000 C   0  0  0  0  0  0  0  0  0  0  0  0
  -13.3928   -2.5091    0.0000 C   0  0  0  0  0  0  0  0  0  0  0  0
  -14.2583   -2.6974    0.0000 O   0  0  0  0  0  0  0  0  0  0  0  0
  -13.6715   -1.0352    0.0000 N   0  0  0  0  0  0  0  0  0  0  0  0
  -13.5033    0.4554    0.0000 C   0  0  0  0  0  0  0  0  0  0  0  0
  -14.9311   -0.0044    0.0000 C   0  0  0  0  0  0  0  0  0  0  0  0
  -16.0432    1.0022    0.0000 C   0  0  0  0  0  0  0  0  0  0  0  0
  -17.4710    0.5424    0.0000 C   0  0  0  0  0  0  0  0  0  0  0  0
  -18.5831    1.5491    0.0000 C   0  0  0  0  0  0  0  0  0  0  0  0
  -20.0109    1.0893    0.0000 N   0  0  0  0  0  0  0  0  0  0  0  0
  -12.9033    1.8301    0.0000 C   0  0  0  0  0  0  0  0  0  0  0  0
  -14.1733    2.6284    0.0000 O   0  0  0  0  0  0  0  0  0  0  0  0
  -11.9247    2.9670    0.0000 N   0  0  0  0  0  0  0  0  0  0  0  0
  -10.6545    3.7649    0.0000 C   0  0  0  0  0  0  0  0  0  0  0  0
  -11.9042    4.5945    0.0000 C   0  0  0  0  0  0  0  0  0  0  0  0
  -11.6288    6.0690    0.0000 C   0  0  0  0  0  0  0  0  0  0  0  0
  -13.3623    4.9467    0.0000 C   0  0  0  0  0  0  0  0  0  0  0  0
  -13.7863    6.3855    0.0000 C   0  0  0  0  0  0  0  0  0  0  0  0
   -9.2056    4.1529    0.0000 C   0  0  0  0  0  0  0  0  0  0  0  0
   -9.3733    5.6435    0.0000 O   0  0  0  0  0  0  0  0  0  0  0  0
   -7.7066    4.0966    0.0000 N   0  0  0  0  0  0  0  0  0  0  0  0
   -6.2909    3.6010    0.0000 C   0  0  0  0  0  0  0  0  0  0  0  0
   -6.4214    5.0953    0.0000 C   0  0  0  0  0  0  0  0  0  0  0  0
   -5.1926    5.9555    0.0000 C   0  0  0  0  0  0  0  0  0  0  0  0
   -3.7744    5.4670    0.0000 C   0  0  0  0  0  0  0  0  0  0  0  0
   -2.8715    6.6648    0.0000 N   0  0  0  0  0  0  0  0  0  0  0  0
   -3.7317    7.8936    0.0000 C   0  0  0  0  0  0  0  0  0  0  0  0
   -3.3941    9.3552    0.0000 C   0  0  0  0  0  0  0  0  0  0  0  0
   -4.4910   10.3783    0.0000 C   0  0  0  0  0  0  0  0  0  0  0  0
   -5.9255    9.9399    0.0000 C   0  0  0  0  0  0  0  0  0  0  0  0
   -6.2631    8.4784    0.0000 C   0  0  0  0  0  0  0  0  0  0  0  0
   -5.1662    7.4553    0.0000 C   0  0  0  0  0  0  0  0  0  0  0  0
   -5.0841    2.7101    0.0000 C   0  0  0  0  0  0  0  0  0  0  0  0
   -4.4739    4.0804    0.0000 O   0  0  0  0  0  0  0  0  0  0  0  0
   -4.1935    1.5031    0.0000 N   0  0  0  0  0  0  0  0  0  0  0  0
   -3.6983    0.0872    0.0000 C   0  0  0  0  0  0  0  0  0  0  0  0
   -3.6424   -1.4118    0.0000 C   0  0  0  0  0  0  0  0  0  0  0  0
   -4.0308   -2.8606    0.0000 C   0  0  0  0  0  0  0  0  0  0  0  0
   -4.8290   -4.1306    0.0000 C   0  0  0  0  0  0  0  0  0  0  0  0
   -5.9661   -5.1089    0.0000 C   0  0  0  0  0  0  0  0  0  0  0  0
   -3.1356    1.5784    0.0000 C   0  0  0  0  0  0  0  0  0  0  0  0
   -3.0009    2.9387    0.0000 C   0  0  0  0  0  0  0  0  0  0  0  0
   -2.6111    4.2489    0.0000 C   0  0  0  0  0  0  0  0  0  0  0  0
   -1.9805    5.4616    0.0000 C   0  0  0  0  0  0  0  0  0  0  0  0
   -2.6300   -1.0957    0.0000 C   0  0  0  0  0  0  0  0  0  0  0  0
   -4.6753   -1.9061    0.0000 O   0  0  0  0  0  0  0  0  0  0  0  0
   -2.0080   -2.3128    0.0000 N   0  0  0  0  0  0  0  0  0  0  0  0
   -1.1668   -3.3903    0.0000 C   0  0  0  0  0  0  0  0  0  0  0  0
   -2.0569   -5.3221    0.0000 C   0  0  0  0  0  0  0  0  0  0  0  0
   -0.9916   -6.3781    0.0000 C   0  0  0  0  0  0  0  0  0  0  0  0
   -1.3735   -7.8287    0.0000 C   0  0  0  0  0  0  0  0  0  0  0  0
   -0.4448   -9.0067    0.0000 N   0  0  0  0  0  0  0  0  0  0  0  0
   -2.8206   -8.2233    0.0000 O   0  0  0  0  0  0  0  0  0  0  0  0
   -0.1369   -4.2891    0.0000 C   0  0  0  0  0  0  0  0  0  0  0  0
   -0.7678   -5.5769    0.0000 O   0  0  0  0  0  0  0  0  0  0  0  0
    1.0445   -4.9767    0.0000 N   0  0  0  0  0  0  0  0  0  0  0  0
    2.3346   -5.4283    0.0000 C   0  0  0  0  0  0  0  0  0  0  0  0
    2.6302   -7.5348    0.0000 C   0  0  0  0  0  0  0  0  0  0  0  0
    1.6261   -8.6491    0.0000 C   0  0  0  0  0  0  0  0  0  0  0  0
    2.0891  -10.0759    0.0000 N   0  0  0  0  0  0  0  0  0  0  0  0
    0.4158   -8.5428    0.0000 O   0  0  0  0  0  0  0  0  0  0  0  0
    3.6869   -5.6277    0.0000 C   0  0  0  0  0  0  0  0  0  0  0  0
    3.7577   -7.8230    0.0000 O   0  0  0  0  0  0  0  0  0  0  0  0
    5.0525   -5.5674    0.0000 N   0  0  0  0  0  0  0  0  0  0  0  0
    6.3821   -5.2499    0.0000 C   0  0  0  0  0  0  0  0  0  0  0  0
    7.7695   -6.8621    0.0000 C   0  0  0  0  0  0  0  0  0  0  0  0
    7.5273   -8.3424    0.0000 C   0  0  0  0  0  0  0  0  0  0  0  0
    8.6882   -9.2924    0.0000 C   0  0  0  0  0  0  0  0  0  0  0  0
    8.4459  -10.7727    0.0000 N   0  0  0  0  0  0  0  0  0  0  0  0
    9.6068  -11.7226    0.0000 C   0  0  0  0  0  0  0  0  0  0  0  0
    9.3646  -13.2029    0.0000 N   0  0  0  0  0  0  0  0  0  0  0  0
   11.0099  -11.1922    0.0000 N   0  0  0  0  0  0  0  0  0  0  0  0
    7.6274   -4.6864    0.0000 C   0  0  0  0  0  0  0  0  0  0  0  0
    8.8738   -6.4950    0.0000 O   0  0  0  0  0  0  0  0  0  0  0  0
    8.7437   -3.8975    0.0000 N   0  0  0  0  0  0  0  0  0  0  0  0
    9.6905   -2.9115    0.0000 C   0  0  0  0  0  0  0  0  0  0  0  0
   11.7293   -3.5177    0.0000 C   0  0  0  0  0  0  0  0  0  0  0  0
   12.3259   -4.8940    0.0000 C   0  0  0  0  0  0  0  0  0  0  0  0
   13.8160   -5.0655    0.0000 C   0  0  0  0  0  0  0  0  0  0  0  0
   14.4126   -6.4418    0.0000 N   0  0  0  0  0  0  0  0  0  0  0  0
   15.9027   -6.6133    0.0000 C   0  0  0  0  0  0  0  0  0  0  0  0
   16.4993   -7.9896    0.0000 N   0  0  0  0  0  0  0  0  0  0  0  0
   16.7964   -5.4085    0.0000 N   0  0  0  0  0  0  0  0  0  0  0  0
   10.4335   -1.7642    0.0000 C   0  0  0  0  0  0  0  0  0  0  0  0
   12.4598   -2.6118    0.0000 O   0  0  0  0  0  0  0  0  0  0  0  0
   10.9461   -0.4970    0.0000 N   0  0  0  0  0  0  0  0  0  0  0  0
   11.2095    0.8443    0.0000 C   0  0  0  0  0  0  0  0  0  0  0  0
   13.2524    1.4366    0.0000 C   0  0  0  0  0  0  0  0  0  0  0  0
   14.4983    0.6013    0.0000 C   0  0  0  0  0  0  0  0  0  0  0  0
   15.8447    1.2627    0.0000 C   0  0  0  0  0  0  0  0  0  0  0  0
   17.0906    0.4274    0.0000 C   0  0  0  0  0  0  0  0  0  0  0  0
   11.2143    2.2112    0.0000 C   0  0  0  0  0  0  0  0  0  0  0  0
   13.3772    2.5936    0.0000 O   0  0  0  0  0  0  0  0  0  0  0  0
   10.9604    3.5543    0.0000 N   0  0  0  0  0  0  0  0  0  0  0  0
   10.4568    4.8251    0.0000 C   0  0  0  0  0  0  0  0  0  0  0  0
   11.8552    6.4279    0.0000 C   0  0  0  0  0  0  0  0  0  0  0  0
   13.3549    6.3988    0.0000 C   0  0  0  0  0  0  0  0  0  0  0  0
   14.1300    7.6831    0.0000 C   0  0  0  0  0  0  0  0  0  0  0  0
   15.6297    7.6540    0.0000 C   0  0  0  0  0  0  0  0  0  0  0  0
   16.4047    8.9382    0.0000 N   0  0  0  0  0  0  0  0  0  0  0  0
    9.7219    5.9776    0.0000 C   0  0  0  0  0  0  0  0  0  0  0  0
   11.3347    7.4687    0.0000 O   0  0  0  0  0  0  0  0  0  0  0  0
    8.7821    6.9703    0.0000 N   0  0  0  0  0  0  0  0  0  0  0  0
    7.6714    7.7671    0.0000 C   0  0  0  0  0  0  0  0  0  0  0  0
    6.4301    8.3393    0.0000 C   0  0  0  0  0  0  0  0  0  0  0  0
    5.1028    8.6663    0.0000 C   0  0  0  0  0  0  0  0  0  0  0  0
    3.7377    8.7361    0.0000 C   0  0  0  0  0  0  0  0  0  0  0  0
    2.3840    8.5464    0.0000 C   0  0  0  0  0  0  0  0  0  0  0  0
    1.0907    8.1039    0.0000 C   0  0  0  0  0  0  0  0  0  0  0  0
   -0.0955    7.4246    0.0000 C   0  0  0  0  0  0  0  0  0  0  0  0
   -1.1317    6.5331    0.0000 C   0  0  0  0  0  0  0  0  0  0  0  0
    9.3483    9.0758    0.0000 C   0  0  0  0  0  0  0  0  0  0  0  0
    7.9813    9.8715    0.0000 C   0  0  0  0  0  0  0  0  0  0  0  0
    9.1533   10.8076    0.0000 O   0  0  0  0  0  0  0  0  0  0  0  0
    6.8734   10.8827    0.0000 O   0  0  0  0  0  0  0  0  0  0  0  0
  -19.1868   -8.1445    0.0000 H   0  0  0  0  0  0  0  0  0  0  0  0
  -19.3483   -5.5514    0.0000 H   0  0  0  0  0  0  0  0  0  0  0  0
  -17.1900   -8.1986    0.0000 H   0  0  0  0  0  0  0  0  0  0  0  0
  -15.5832   -7.1325    0.0000 H   0  0  0  0  0  0  0  0  0  0  0  0
  -17.7928   -4.9405    0.0000 H   0  0  0  0  0  0  0  0  0  0  0  0
  -16.1859   -3.8744    0.0000 H   0  0  0  0  0  0  0  0  0  0  0  0
  -14.7076   -3.3230    0.0000 H   0  0  0  0  0  0  0  0  0  0  0  0
  -11.7252   -6.3932    0.0000 H   0  0  0  0  0  0  0  0  0  0  0  0
  -12.9595   -5.5936    0.0000 H   0  0  0  0  0  0  0  0  0  0  0  0
  -10.1340   -7.0874    0.0000 H   0  0  0  0  0  0  0  0  0  0  0  0
  -11.3689   -6.6551    0.0000 H   0  0  0  0  0  0  0  0  0  0  0  0
   -8.0657   -7.1659    0.0000 H   0  0  0  0  0  0  0  0  0  0  0  0
   -9.5360   -7.2006    0.0000 H   0  0  0  0  0  0  0  0  0  0  0  0
   -6.9530   -7.1575    0.0000 H   0  0  0  0  0  0  0  0  0  0  0  0
  -14.5875   -5.7885    0.0000 H   0  0  0  0  0  0  0  0  0  0  0  0
  -13.0508   -6.7084    0.0000 H   0  0  0  0  0  0  0  0  0  0  0  0
  -11.9850   -6.0820    0.0000 H   0  0  0  0  0  0  0  0  0  0  0  0
  -15.1704   -1.0911    0.0000 H   0  0  0  0  0  0  0  0  0  0  0  0
  -14.3665    1.6821    0.0000 H   0  0  0  0  0  0  0  0  0  0  0  0
  -15.9945   -1.0623    0.0000 H   0  0  0  0  0  0  0  0  0  0  0  0
  -14.5721   -1.4608    0.0000 H   0  0  0  0  0  0  0  0  0  0  0  0
  -16.5770    2.4040    0.0000 H   0  0  0  0  0  0  0  0  0  0  0  0
  -14.9798    2.0601    0.0000 H   0  0  0  0  0  0  0  0  0  0  0  0
  -18.5344   -0.5155    0.0000 H   0  0  0  0  0  0  0  0  0  0  0  0
  -16.9372   -0.8593    0.0000 H   0  0  0  0  0  0  0  0  0  0  0  0
  -19.2838    2.8753    0.0000 H   0  0  0  0  0  0  0  0  0  0  0  0
  -17.5197    2.6070    0.0000 H   0  0  0  0  0  0  0  0  0  0  0  0
  -21.1229    2.0959    0.0000 H   0  0  0  0  0  0  0  0  0  0  0  0
  -21.1953    0.1689    0.0000 H   0  0  0  0  0  0  0  0  0  0  0  0
  -19.4770   -0.3125    0.0000 H   0  0  0  0  0  0  0  0  0  0  0  0
  -13.0343    3.9763    0.0000 H   0  0  0  0  0  0  0  0  0  0  0  0
  -10.2337    5.2046    0.0000 H   0  0  0  0  0  0  0  0  0  0  0  0
  -12.8191    3.4058    0.0000 H   0  0  0  0  0  0  0  0  0  0  0  0
  -12.9457    7.0893    0.0000 H   0  0  0  0  0  0  0  0  0  0  0  0
  -11.2105    7.4663    0.0000 H   0  0  0  0  0  0  0  0  0  0  0  0
  -10.3204    5.9197    0.0000 H   0  0  0  0  0  0  0  0  0  0  0  0
  -14.8529    4.7789    0.0000 H   0  0  0  0  0  0  0  0  0  0  0  0
  -13.6377    3.4722    0.0000 H   0  0  0  0  0  0  0  0  0  0  0  0
  -15.2444    6.7377    0.0000 H   0  0  0  0  0  0  0  0  0  0  0  0
  -13.6927    7.8826    0.0000 H   0  0  0  0  0  0  0  0  0  0  0  0
  -12.3806    6.9089    0.0000 H   0  0  0  0  0  0  0  0  0  0  0  0
   -7.4276    5.5704    0.0000 H   0  0  0  0  0  0  0  0  0  0  0  0
   -5.1989    4.6294    0.0000 H   0  0  0  0  0  0  0  0  0  0  0  0
   -7.0552    6.4549    0.0000 H   0  0  0  0  0  0  0  0  0  0  0  0
   -7.9212    5.0694    0.0000 H   0  0  0  0  0  0  0  0  0  0  0  0
   -2.8509    4.2849    0.0000 H   0  0  0  0  0  0  0  0  0  0  0  0
   -1.4099    7.0021    0.0000 H   0  0  0  0  0  0  0  0  0  0  0  0
   -1.9595    9.7935    0.0000 H   0  0  0  0  0  0  0  0  0  0  0  0
   -4.1533   11.8398    0.0000 H   0  0  0  0  0  0  0  0  0  0  0  0
   -7.0224   10.9631    0.0000 H   0  0  0  0  0  0  0  0  0  0  0  0
   -7.6976    8.0401    0.0000 H   0  0  0  0  0  0  0  0  0  0  0  0
   -2.8673    2.2038    0.0000 H   0  0  0  0  0  0  0  0  0  0  0  0
   -2.2991   -0.7443    0.0000 H   0  0  0  0  0  0  0  0  0  0  0  0
   -2.6060   -2.4961    0.0000 H   0  0  0  0  0  0  0  0  0  0  0  0
   -2.5621   -3.1655    0.0000 H   0  0  0  0  0  0  0  0  0  0  0  0
   -3.5286   -4.2740    0.0000 H   0  0  0  0  0  0  0  0  0  0  0  0
   -3.5155   -4.8548    0.0000 H   0  0  0  0  0  0  0  0  0  0  0  0
   -4.4050   -5.5694    0.0000 H   0  0  0  0  0  0  0  0  0  0  0  0
   -5.1683   -6.3790    0.0000 H   0  0  0  0  0  0  0  0  0  0  0  0
   -5.1130    0.7946    0.0000 H   0  0  0  0  0  0  0  0  0  0  0  0
   -5.0010    2.5253    0.0000 H   0  0  0  0  0  0  0  0  0  0  0  0
   -5.1877    3.0814    0.0000 H   0  0  0  0  0  0  0  0  0  0  0  0
   -4.6533    4.2215    0.0000 H   0  0  0  0  0  0  0  0  0  0  0  0
   -4.7315    4.8029    0.0000 H   0  0  0  0  0  0  0  0  0  0  0  0
   -3.8258    5.9006    0.0000 H   0  0  0  0  0  0  0  0  0  0  0  0
   -3.8270    6.6576    0.0000 H   0  0  0  0  0  0  0  0  0  0  0  0
   -3.4898   -3.8954    0.0000 H   0  0  0  0  0  0  0  0  0  0  0  0
   -3.0966   -4.3504    0.0000 H   0  0  0  0  0  0  0  0  0  0  0  0
   -2.9119   -6.5546    0.0000 H   0  0  0  0  0  0  0  0  0  0  0  0
   -3.5537   -5.2242    0.0000 H   0  0  0  0  0  0  0  0  0  0  0  0
    0.1782   -7.3170    0.0000 H   0  0  0  0  0  0  0  0  0  0  0  0
    0.1361   -5.3891    0.0000 H   0  0  0  0  0  0  0  0  0  0  0  0
   -0.6900  -10.3353    0.0000 H   0  0  0  0  0  0  0  0  0  0  0  0
    1.2169   -8.8887    0.0000 H   0  0  0  0  0  0  0  0  0  0  0  0
    0.2942   -7.0410    0.0000 H   0  0  0  0  0  0  0  0  0  0  0  0
    1.2302   -7.2794    0.0000 H   0  0  0  0  0  0  0  0  0  0  0  0
    3.4023   -8.8208    0.0000 H   0  0  0  0  0  0  0  0  0  0  0  0
    4.0858   -7.1725    0.0000 H   0  0  0  0  0  0  0  0  0  0  0  0
    1.0850  -11.1902    0.0000 H   0  0  0  0  0  0  0  0  0  0  0  0
    3.5562  -10.3883    0.0000 H   0  0  0  0  0  0  0  0  0  0  0  0
    5.1753   -7.7604    0.0000 H   0  0  0  0  0  0  0  0  0  0  0  0
    6.0973   -7.3223    0.0000 H   0  0  0  0  0  0  0  0  0  0  0  0
    9.1853   -7.3577    0.0000 H   0  0  0  0  0  0  0  0  0  0  0  0
    8.7982   -5.7704    0.0000 H   0  0  0  0  0  0  0  0  0  0  0  0
    6.7934   -9.6506    0.0000 H   0  0  0  0  0  0  0  0  0  0  0  0
    6.0337   -8.2041    0.0000 H   0  0  0  0  0  0  0  0  0  0  0  0
   10.1039   -9.7880    0.0000 H   0  0  0  0  0  0  0  0  0  0  0  0
    9.5761   -8.0834    0.0000 H   0  0  0  0  0  0  0  0  0  0  0  0
    7.0428  -11.3030    0.0000 H   0  0  0  0  0  0  0  0  0  0  0  0
   10.5254  -14.1529    0.0000 H   0  0  0  0  0  0  0  0  0  0  0  0
    7.9615  -13.7333    0.0000 H   0  0  0  0  0  0  0  0  0  0  0  0
   12.1708  -12.1422    0.0000 H   0  0  0  0  0  0  0  0  0  0  0  0
   11.2521   -9.7119    0.0000 H   0  0  0  0  0  0  0  0  0  0  0  0
   10.0326   -5.6760    0.0000 H   0  0  0  0  0  0  0  0  0  0  0  0
   10.5714   -4.8089    0.0000 H   0  0  0  0  0  0  0  0  0  0  0  0
   13.1883   -3.1692    0.0000 H   0  0  0  0  0  0  0  0  0  0  0  0
   12.0045   -2.0431    0.0000 H   0  0  0  0  0  0  0  0  0  0  0  0
   12.4157   -6.3913    0.0000 H   0  0  0  0  0  0  0  0  0  0  0  0
   10.9946   -5.5851    0.0000 H   0  0  0  0  0  0  0  0  0  0  0  0
   15.2750   -4.7170    0.0000 H   0  0  0  0  0  0  0  0  0  0  0  0
   13.9094   -3.5684    0.0000 H   0  0  0  0  0  0  0  0  0  0  0  0
   13.5190   -7.6465    0.0000 H   0  0  0  0  0  0  0  0  0  0  0  0
   17.9894   -8.1611    0.0000 H   0  0  0  0  0  0  0  0  0  0  0  0
   15.6057   -9.1943    0.0000 H   0  0  0  0  0  0  0  0  0  0  0  0
   18.2865   -5.5801    0.0000 H   0  0  0  0  0  0  0  0  0  0  0  0
   16.1998   -4.0323    0.0000 H   0  0  0  0  0  0  0  0  0  0  0  0
   12.9919   -1.2963    0.0000 H   0  0  0  0  0  0  0  0  0  0  0  0
   12.9764   -0.2756    0.0000 H   0  0  0  0  0  0  0  0  0  0  0  0
   14.2914    2.5186    0.0000 H   0  0  0  0  0  0  0  0  0  0  0  0
   12.6867    2.8259    0.0000 H   0  0  0  0  0  0  0  0  0  0  0  0
   15.2292   -0.7086    0.0000 H   0  0  0  0  0  0  0  0  0  0  0  0
   13.7521   -0.6998    0.0000 H   0  0  0  0  0  0  0  0  0  0  0  0
   16.8836    2.3446    0.0000 H   0  0  0  0  0  0  0  0  0  0  0  0
   15.1138    2.5726    0.0000 H   0  0  0  0  0  0  0  0  0  0  0  0
   18.4369    1.0888    0.0000 H   0  0  0  0  0  0  0  0  0  0  0  0
   17.9757   -0.7836    0.0000 H   0  0  0  0  0  0  0  0  0  0  0  0
   16.1913   -0.7731    0.0000 H   0  0  0  0  0  0  0  0  0  0  0  0
   13.1136    3.9879    0.0000 H   0  0  0  0  0  0  0  0  0  0  0  0
   12.5487    4.8382    0.0000 H   0  0  0  0  0  0  0  0  0  0  0  0
   12.1443    7.8998    0.0000 H   0  0  0  0  0  0  0  0  0  0  0  0
   10.6282    7.2907    0.0000 H   0  0  0  0  0  0  0  0  0  0  0  0
   14.6779    5.6920    0.0000 H   0  0  0  0  0  0  0  0  0  0  0  0
   13.4306    4.9007    0.0000 H   0  0  0  0  0  0  0  0  0  0  0  0
   14.2375    9.1792    0.0000 H   0  0  0  0  0  0  0  0  0  0  0  0
   12.8069    8.3899    0.0000 H   0  0  0  0  0  0  0  0  0  0  0  0
   17.0290    7.1137    0.0000 H   0  0  0  0  0  0  0  0  0  0  0  0
   15.5222    6.1578    0.0000 H   0  0  0  0  0  0  0  0  0  0  0  0
   17.9045    8.9091    0.0000 H   0  0  0  0  0  0  0  0  0  0  0  0
   16.6938   10.4101    0.0000 H   0  0  0  0  0  0  0  0  0  0  0  0
   15.0817    9.6450    0.0000 H   0  0  0  0  0  0  0  0  0  0  0  0
   10.3591    8.4992    0.0000 H   0  0  0  0  0  0  0  0  0  0  0  0
    6.3360   10.4643    0.0000 H   0  0  0  0  0  0  0  0  0  0  0  0
    7.5663   10.1962    0.0000 H   0  0  0  0  0  0  0  0  0  0  0  0
    4.7806   10.7975    0.0000 H   0  0  0  0  0  0  0  0  0  0  0  0
    5.8671   10.7047    0.0000 H   0  0  0  0  0  0  0  0  0  0  0  0
    3.0179   10.7679    0.0000 H   0  0  0  0  0  0  0  0  0  0  0  0
    4.2758   10.8233    0.0000 H   0  0  0  0  0  0  0  0  0  0  0  0
    1.2927   10.4052    0.0000 H   0  0  0  0  0  0  0  0  0  0  0  0
    2.5174   10.6977    0.0000 H   0  0  0  0  0  0  0  0  0  0  0  0
   -0.3327    9.7226    0.0000 H   0  0  0  0  0  0  0  0  0  0  0  0
    0.8145   10.2416    0.0000 H   0  0  0  0  0  0  0  0  0  0  0  0
   -1.8810    8.5806    0.0000 H   0  0  0  0  0  0  0  0  0  0  0  0
   -0.7712    9.4714    0.0000 H   0  0  0  0  0  0  0  0  0  0  0  0
   -2.7186    8.0569    0.0000 H   0  0  0  0  0  0  0  0  0  0  0  0
    9.5835   10.5572    0.0000 H   0  0  0  0  0  0  0  0  0  0  0  0
   10.7973    9.4635    0.0000 H   0  0  0  0  0  0  0  0  0  0  0  0
   10.1427    7.8035    0.0000 H   0  0  0  0  0  0  0  0  0  0  0  0
  1  2  1  0
  2  3  1  0
  3  4  1  0
  4  5  2  0
  4  6  1  0
  7  6  1  6
  7  8  1  0
  8  9  1  0
  9 10  1  0
 10 11  1  0
  7 12  1  0
  7 13  1  0
 13 14  2  0
 13 15  1  0
 15 16  1  0
 16 17  1  0
 17 18  1  0
 18 19  1  0
 19 20  1  0
 20 21  1  0
 16 22  1  0
 22 23  2  0
 22 24  1  0
 24 25  1  0
 25 26  1  0
 26 27  1  0
 26 28  1  0
 28 29  1  0
 25 30  1  0
 30 31  2  0
 30 32  1  0
 32 33  1  0
 33 34  1  0
 34 35  1  0
 35 36  2  0
 36 37  1  0
 37 38  1  0
 38 39  2  0
 39 40  1  0
 40 41  2  0
 41 42  1  0
 42 43  2  0
 33 44  1  0
 44 45  2  0
 44 46  1  0
 46 47  1  0
 47 48  1  0
 48 49  1  0
 49 50  1  0
 50 51  1  0
 47 52  1  0
 52 53  1  0
 53 54  1  0
 54 55  1  0
 47 56  1  0
 56 57  2  0
 56 58  1  0
 58 59  1  0
 59 60  1  0
 60 61  1  0
 61 62  1  0
 62 63  1  0
 62 64  2  0
 59 65  1  0
 65 66  2  0
 65 67  1  0
 67 68  1  0
 68 69  1  0
 69 70  1  0
 70 71  1  0
 70 72  2  0
 68 73  1  0
 73 74  2  0
 73 75  1  0
 75 76  1  0
 76 77  1  0
 77 78  1  0
 78 79  1  0
 79 80  1  0
 80 81  1  0
 81 82  2  3
 81 83  1  0
 76 84  1  0
 84 85  2  0
 84 86  1  0
 86 87  1  0
 87 88  1  0
 88 89  1  0
 89 90  1  0
 90 91  1  0
 91 92  1  0
 92 93  2  3
 92 94  1  0
 87 95  1  0
 95 96  2  0
 95 97  1  0
 97 98  1  0
 98 99  1  0
 99100  1  0
100101  1  0
101102  1  0
 98103  1  0
103104  2  0
103105  1  0
105106  1  0
106107  1  0
107108  1  0
108109  1  0
109110  1  0
110111  1  0
106112  1  0
112113  2  0
112114  1  0
114115  1  0
115116  1  0
116117  1  0
117118  1  0
118119  1  0
119120  1  0
120121  1  0
121122  1  0
115123  1  0
115124  1  1
124125  2  0
124126  1  0
 43 35  1  0
 43 38  1  0
 11 51  2  0
 55122  2  0
  1127  1  0
  1128  1  0
  2129  1  0
  2130  1  0
  3131  1  0
  3132  1  0
  6133  1  0
  8134  1  0
  8135  1  0
  9136  1  0
  9137  1  0
 10138  1  0
 10139  1  0
 11140  1  0
 12141  1  0
 12142  1  0
 12143  1  0
 15144  1  0
 16145  1  1
 17146  1  0
 17147  1  0
 18148  1  0
 18149  1  0
 19150  1  0
 19151  1  0
 20152  1  0
 20153  1  0
 21154  1  0
 21155  1  0
 21156  1  0
 24157  1  0
 25158  1  1
 26159  1  1
 27160  1  0
 27161  1  0
 27162  1  0
 28163  1  0
 28164  1  0
 29165  1  0
 29166  1  0
 29167  1  0
 32168  1  0
 33169  1  1
 34170  1  0
 34171  1  0
 36172  1  0
 37173  1  0
 39174  1  0
 40175  1  0
 41176  1  0
 42177  1  0
 46178  1  0
 48179  1  0
 48180  1  0
 49181  1  0
 49182  1  0
 50183  1  0
 50184  1  0
 51185  1  0
 52186  1  0
 52187  1  0
 53188  1  0
 53189  1  0
 54190  1  0
 54191  1  0
 55192  1  0
 58193  1  0
 59194  1  6
 60195  1  0
 60196  1  0
 61197  1  0
 61198  1  0
 63199  1  0
 63200  1  0
 67201  1  0
 68202  1  6
 69203  1  0
 69204  1  0
 71205  1  0
 71206  1  0
 75207  1  0
 76208  1  6
 77209  1  0
 77210  1  0
 78211  1  0
 78212  1  0
 79213  1  0
 79214  1  0
 80215  1  0
 82216  1  0
 82217  1  0
 83218  1  0
 83219  1  0
 86220  1  0
 87221  1  6
 88222  1  0
 88223  1  0
 89224  1  0
 89225  1  0
 90226  1  0
 90227  1  0
 91228  1  0
 93229  1  0
 93230  1  0
 94231  1  0
 94232  1  0
 97233  1  0
 98234  1  1
 99235  1  0
 99236  1  0
100237  1  0
100238  1  0
101239  1  0
101240  1  0
102241  1  0
102242  1  0
102243  1  0
105244  1  0
106245  1  6
107246  1  0
107247  1  0
108248  1  0
108249  1  0
109250  1  0
109251  1  0
110252  1  0
110253  1  0
111254  1  0
111255  1  0
111256  1  0
114257  1  0
116258  1  0
116259  1  0
117260  1  0
117261  1  0
118262  1  0
118263  1  0
119264  1  0
119265  1  0
120266  1  0
120267  1  0
121268  1  0
121269  1  0
122270  1  0
123271  1  0
123272  1  0
123273  1  0
M  CHG  5  21   1  82   1  93   1 111   1 126  -1
M  END
