
     RDKit          2D

345352  0  0  0  0  0  0  0  0999 V2000
   37.4505   -1.5598    0.0000 C   0  0  0  0  0  0  0  0  0  0  0  0
   38.7426   -0.7979    0.0000 N   0  0  0  0  0  0  0  0  0  0  0  0
   40.0484   -1.5359    0.0000 C   0  0  0  0  0  0  0  0  0  0  0  0
   40.0622   -3.0359    0.0000 C   0  0  0  0  0  0  0  0  0  0  0  0
   41.3681   -3.7739    0.0000 C   0  0  0  0  0  0  0  0  0  0  0  0
   42.6602   -3.0120    0.0000 C   0  0  0  0  0  0  0  0  0  0  0  0
   42.6464   -1.5121    0.0000 C   0  0  0  0  0  0  0  0  0  0  0  0
   41.3405   -0.7740    0.0000 C   0  0  0  0  0  0  0  0  0  0  0  0
   44.0687   -1.0355    0.0000 C   0  0  0  0  0  0  0  0  0  0  0  0
   44.9614   -2.2409    0.0000 O   0  0  0  0  0  0  0  0  0  0  0  0
   44.0909   -3.4624    0.0000 C   0  0  0  0  0  0  0  0  0  0  0  0
   44.5675   -4.8847    0.0000 O   0  0  0  0  0  0  0  0  0  0  0  0
   45.5330   -0.7101    0.0000 C   0  0  0  0  0  0  0  0  0  0  0  0
   45.9834    0.7206    0.0000 C   0  0  0  0  0  0  0  0  0  0  0  0
   47.4477    1.0460    0.0000 C   0  0  0  0  0  0  0  0  0  0  0  0
   48.4616   -0.0595    0.0000 C   0  0  0  0  0  0  0  0  0  0  0  0
   48.0111   -1.4903    0.0000 C   0  0  0  0  0  0  0  0  0  0  0  0
   46.5468   -1.8156    0.0000 C   0  0  0  0  0  0  0  0  0  0  0  0
   49.9258    0.2658    0.0000 O   0  0  0  0  0  0  0  0  0  0  0  0
   44.9695    1.8261    0.0000 O   0  0  0  0  0  0  0  0  0  0  0  0
   43.5052    1.5008    0.0000 C   0  0  0  0  0  0  0  0  0  0  0  0
   43.0548    0.0700    0.0000 C   0  0  0  0  0  0  0  0  0  0  0  0
   41.8007    0.4124    0.0000 C   0  0  0  0  0  0  0  0  0  0  0  0
   41.2599    1.0019    0.0000 C   0  0  0  0  0  0  0  0  0  0  0  0
   41.5001    1.7650    0.0000 C   0  0  0  0  0  0  0  0  0  0  0  0
   42.2811    1.9385    0.0000 C   0  0  0  0  0  0  0  0  0  0  0  0
   40.0131    3.3863    0.0000 O   0  0  0  0  0  0  0  0  0  0  0  0
   37.4642   -3.0597    0.0000 S   0  0  0  0  0  0  0  0  0  0  0  0
   36.1446   -0.8217    0.0000 N   0  0  0  0  0  0  0  0  0  0  0  0
   34.8525   -1.5836    0.0000 C   0  0  0  0  0  0  0  0  0  0  0  0
   33.5466   -0.8456    0.0000 C   0  0  0  0  0  0  0  0  0  0  0  0
   32.2545   -1.6075    0.0000 O   0  0  0  0  0  0  0  0  0  0  0  0
   30.9487   -0.8694    0.0000 C   0  0  0  0  0  0  0  0  0  0  0  0
   29.6566   -1.6313    0.0000 C   0  0  0  0  0  0  0  0  0  0  0  0
   28.3507   -0.8933    0.0000 O   0  0  0  0  0  0  0  0  0  0  0  0
   27.0586   -1.6552    0.0000 C   0  0  0  0  0  0  0  0  0  0  0  0
   25.7527   -0.9171    0.0000 C   0  0  0  0  0  0  0  0  0  0  0  0
   24.4606   -1.6790    0.0000 O   0  0  0  0  0  0  0  0  0  0  0  0
   23.1548   -0.9410    0.0000 C   0  0  0  0  0  0  0  0  0  0  0  0
   21.8627   -1.7029    0.0000 C   0  0  0  0  0  0  0  0  0  0  0  0
   20.5568   -0.9649    0.0000 O   0  0  0  0  0  0  0  0  0  0  0  0
   19.2647   -1.7267    0.0000 C   0  0  0  0  0  0  0  0  0  0  0  0
   17.9588   -0.9887    0.0000 C   0  0  0  0  0  0  0  0  0  0  0  0
   16.6667   -1.7506    0.0000 O   0  0  0  0  0  0  0  0  0  0  0  0
   15.3609   -1.0126    0.0000 C   0  0  0  0  0  0  0  0  0  0  0  0
   14.0688   -1.7745    0.0000 C   0  0  0  0  0  0  0  0  0  0  0  0
   12.7629   -1.0364    0.0000 O   0  0  0  0  0  0  0  0  0  0  0  0
   11.4708   -1.7983    0.0000 C   0  0  0  0  0  0  0  0  0  0  0  0
   10.1649   -1.0603    0.0000 C   0  0  0  0  0  0  0  0  0  0  0  0
    8.8728   -1.8222    0.0000 C   0  0  0  0  0  0  0  0  0  0  0  0
    9.0728   -2.5938    0.0000 O   0  0  0  0  0  0  0  0  0  0  0  0
    7.5670   -1.0841    0.0000 N   0  0  0  0  0  0  0  0  0  0  0  0
    6.2749   -1.8460    0.0000 C   0  0  0  0  0  0  0  0  0  0  0  0
    7.2496   -2.9862    0.0000 C   0  0  0  0  0  0  0  0  0  0  0  0
    8.7243   -2.7122    0.0000 C   0  0  0  0  0  0  0  0  0  0  0  0
    7.7755   -4.3909    0.0000 C   0  0  0  0  0  0  0  0  0  0  0  0
    9.2550   -4.6378    0.0000 C   0  0  0  0  0  0  0  0  0  0  0  0
    4.8001   -2.1200    0.0000 C   0  0  0  0  0  0  0  0  0  0  0  0
    4.6571   -3.6132    0.0000 O   0  0  0  0  0  0  0  0  0  0  0  0
    3.8254   -0.9799    0.0000 N   0  0  0  0  0  0  0  0  0  0  0  0
    2.3507   -1.2539    0.0000 C   0  0  0  0  0  0  0  0  0  0  0  0
    2.8766   -2.6587    0.0000 C   0  0  0  0  0  0  0  0  0  0  0  0
    4.3561   -2.9056    0.0000 C   0  0  0  0  0  0  0  0  0  0  0  0
    4.8821   -4.3103    0.0000 C   0  0  0  0  0  0  0  0  0  0  0  0
    6.2579   -4.9079    0.0000 N   0  0  0  0  0  0  0  0  0  0  0  0
    3.9285   -5.4682    0.0000 O   0  0  0  0  0  0  0  0  0  0  0  0
    0.8711   -1.0070    0.0000 C   0  0  0  0  0  0  0  0  0  0  0  0
    0.2260   -2.3612    0.0000 O   0  0  0  0  0  0  0  0  0  0  0  0
    0.3452    0.3978    0.0000 N   0  0  0  0  0  0  0  0  0  0  0  0
   -1.1344    0.6447    0.0000 C   0  0  0  0  0  0  0  0  0  0  0  0
   -1.1206   -0.8553    0.0000 C   0  0  0  0  0  0  0  0  0  0  0  0
    0.1853   -1.5933    0.0000 C   0  0  0  0  0  0  0  0  0  0  0  0
    0.1990   -3.0932    0.0000 O   0  0  0  0  0  0  0  0  0  0  0  0
    1.6233   -1.1667    0.0000 O   0  0  0  0  0  0  0  0  0  0  0  0
   -2.4402    1.3827    0.0000 C   0  0  0  0  0  0  0  0  0  0  0  0
   -3.5096    0.3308    0.0000 O   0  0  0  0  0  0  0  0  0  0  0  0
   -2.4540    2.8827    0.0000 N   0  0  0  0  0  0  0  0  0  0  0  0
   -3.7599    3.6207    0.0000 C   0  0  0  0  0  0  0  0  0  0  0  0
   -3.8413    2.1229    0.0000 C   0  0  0  0  0  0  0  0  0  0  0  0
   -4.2046    0.6676    0.0000 C   0  0  0  0  0  0  0  0  0  0  0  0
   -4.8369   -0.6927    0.0000 C   0  0  0  0  0  0  0  0  0  0  0  0
   -5.7151   -1.9087    0.0000 C   0  0  0  0  0  0  0  0  0  0  0  0
   -2.5187    4.4630    0.0000 C   0  0  0  0  0  0  0  0  0  0  0  0
   -3.9634    5.1068    0.0000 C   0  0  0  0  0  0  0  0  0  0  0  0
   -2.5562    5.6261    0.0000 O   0  0  0  0  0  0  0  0  0  0  0  0
   -4.4445    6.5276    0.0000 N   0  0  0  0  0  0  0  0  0  0  0  0
   -5.1858    7.8316    0.0000 C   0  0  0  0  0  0  0  0  0  0  0  0
   -4.5971    9.2112    0.0000 C   0  0  0  0  0  0  0  0  0  0  0  0
   -3.1079    9.3912    0.0000 C   0  0  0  0  0  0  0  0  0  0  0  0
   -2.5192   10.7708    0.0000 C   0  0  0  0  0  0  0  0  0  0  0  0
   -1.6470    9.0509    0.0000 C   0  0  0  0  0  0  0  0  0  0  0  0
   -6.1605    8.9718    0.0000 C   0  0  0  0  0  0  0  0  0  0  0  0
   -5.2574   10.1694    0.0000 O   0  0  0  0  0  0  0  0  0  0  0  0
   -7.3334    9.9069    0.0000 N   0  0  0  0  0  0  0  0  0  0  0  0
   -8.6620   10.6031    0.0000 C   0  0  0  0  0  0  0  0  0  0  0  0
   -8.9126   12.0820    0.0000 C   0  0  0  0  0  0  0  0  0  0  0  0
  -10.0984   11.0353    0.0000 C   0  0  0  0  0  0  0  0  0  0  0  0
   -9.9862   12.5311    0.0000 O   0  0  0  0  0  0  0  0  0  0  0  0
  -11.5906   11.1879    0.0000 N   0  0  0  0  0  0  0  0  0  0  0  0
  -13.0847   11.0553    0.0000 C   0  0  0  0  0  0  0  0  0  0  0  0
  -14.0951   12.1639    0.0000 C   0  0  0  0  0  0  0  0  0  0  0  0
  -13.6402   13.5933    0.0000 C   0  0  0  0  0  0  0  0  0  0  0  0
  -12.1748   13.9140    0.0000 C   0  0  0  0  0  0  0  0  0  0  0  0
  -11.7199   15.3433    0.0000 C   0  0  0  0  0  0  0  0  0  0  0  0
  -12.7303   16.4520    0.0000 C   0  0  0  0  0  0  0  0  0  0  0  0
  -14.1956   16.1313    0.0000 C   0  0  0  0  0  0  0  0  0  0  0  0
  -14.6505   14.7020    0.0000 C   0  0  0  0  0  0  0  0  0  0  0  0
  -14.5268   10.6423    0.0000 C   0  0  0  0  0  0  0  0  0  0  0  0
  -15.2411   11.9613    0.0000 O   0  0  0  0  0  0  0  0  0  0  0  0
  -15.8646    9.9639    0.0000 N   0  0  0  0  0  0  0  0  0  0  0  0
  -17.0498    9.0446    0.0000 C   0  0  0  0  0  0  0  0  0  0  0  0
  -18.4992    9.4310    0.0000 C   0  0  0  0  0  0  0  0  0  0  0  0
  -18.8893   10.8794    0.0000 C   0  0  0  0  0  0  0  0  0  0  0  0
  -17.8299   11.9414    0.0000 C   0  0  0  0  0  0  0  0  0  0  0  0
  -18.2200   13.3898    0.0000 C   0  0  0  0  0  0  0  0  0  0  0  0
  -19.6693   13.7762    0.0000 C   0  0  0  0  0  0  0  0  0  0  0  0
  -20.7287   12.7142    0.0000 C   0  0  0  0  0  0  0  0  0  0  0  0
  -20.3386   11.2658    0.0000 C   0  0  0  0  0  0  0  0  0  0  0  0
  -18.0397    7.9175    0.0000 C   0  0  0  0  0  0  0  0  0  0  0  0
  -19.3537    8.6410    0.0000 O   0  0  0  0  0  0  0  0  0  0  0  0
  -18.7984    6.6235    0.0000 N   0  0  0  0  0  0  0  0  0  0  0  0
  -19.2984    5.2094    0.0000 C   0  0  0  0  0  0  0  0  0  0  0  0
  -20.7266    4.7508    0.0000 C   0  0  0  0  0  0  0  0  0  0  0  0
  -21.8378    5.7584    0.0000 O   0  0  0  0  0  0  0  0  0  0  0  0
  -19.5218    3.7261    0.0000 C   0  0  0  0  0  0  0  0  0  0  0  0
  -21.0184    3.6243    0.0000 O   0  0  0  0  0  0  0  0  0  0  0  0
  -19.4605    2.2273    0.0000 N   0  0  0  0  0  0  0  0  0  0  0  0
  -19.1166    0.7673    0.0000 C   0  0  0  0  0  0  0  0  0  0  0  0
  -20.0702   -0.3906    0.0000 C   0  0  0  0  0  0  0  0  0  0  0  0
  -21.5497   -0.1437    0.0000 C   0  0  0  0  0  0  0  0  0  0  0  0
  -22.5033   -1.3016    0.0000 C   0  0  0  0  0  0  0  0  0  0  0  0
  -23.9828   -1.0547    0.0000 N   0  0  0  0  0  0  0  0  0  0  0  0
  -24.9364   -2.2125    0.0000 C   0  0  0  0  0  0  0  0  0  0  0  0
  -26.4160   -1.9656    0.0000 N   0  0  0  0  0  0  0  0  0  0  0  0
  -24.4105   -3.6173    0.0000 N   0  0  0  0  0  0  0  0  0  0  0  0
  -18.5026   -0.6013    0.0000 C   0  0  0  0  0  0  0  0  0  0  0  0
  -19.7065   -1.4960    0.0000 O   0  0  0  0  0  0  0  0  0  0  0  0
  -17.6407   -1.8289    0.0000 N   0  0  0  0  0  0  0  0  0  0  0  0
  -16.5620   -2.8713    0.0000 C   0  0  0  0  0  0  0  0  0  0  0  0
  -15.3056   -3.6907    0.0000 C   0  0  0  0  0  0  0  0  0  0  0  0
  -13.9168   -4.2575    0.0000 C   0  0  0  0  0  0  0  0  0  0  0  0
  -12.4459   -4.5512    0.0000 C   0  0  0  0  0  0  0  0  0  0  0  0
  -10.9459   -4.5612    0.0000 C   0  0  0  0  0  0  0  0  0  0  0  0
   -9.4711   -4.2872    0.0000 C   0  0  0  0  0  0  0  0  0  0  0  0
   -8.0749   -3.7390    0.0000 C   0  0  0  0  0  0  0  0  0  0  0  0
   -6.8076   -2.9365    0.0000 C   0  0  0  0  0  0  0  0  0  0  0  0
  -17.9750   -3.3749    0.0000 C   0  0  0  0  0  0  0  0  0  0  0  0
  -16.7383   -4.3609    0.0000 C   0  0  0  0  0  0  0  0  0  0  0  0
  -15.7892   -5.5225    0.0000 O   0  0  0  0  0  0  0  0  0  0  0  0
  -18.1164   -4.9531    0.0000 N   0  0  0  0  0  0  0  0  0  0  0  0
  -18.2926   -6.4427    0.0000 C   0  0  0  0  0  0  0  0  0  0  0  0
  -17.9488   -7.9028    0.0000 C   0  0  0  0  0  0  0  0  0  0  0  0
  -19.0413   -8.9306    0.0000 C   0  0  0  0  0  0  0  0  0  0  0  0
  -18.6974  -10.3907    0.0000 C   0  0  0  0  0  0  0  0  0  0  0  0
  -20.4194   -9.5228    0.0000 C   0  0  0  0  0  0  0  0  0  0  0  0
  -19.6708   -7.0349    0.0000 C   0  0  0  0  0  0  0  0  0  0  0  0
  -20.8727   -6.1375    0.0000 O   0  0  0  0  0  0  0  0  0  0  0  0
  -19.8470   -8.5245    0.0000 N   0  0  0  0  0  0  0  0  0  0  0  0
  -21.2252   -9.1167    0.0000 C   0  0  0  0  0  0  0  0  0  0  0  0
  -22.7227   -9.2019    0.0000 C   0  0  0  0  0  0  0  0  0  0  0  0
  -23.5453   -7.9475    0.0000 C   0  0  0  0  0  0  0  0  0  0  0  0
  -25.0428   -8.0326    0.0000 C   0  0  0  0  0  0  0  0  0  0  0  0
  -25.8654   -6.7782    0.0000 N   0  0  0  0  0  0  0  0  0  0  0  0
  -25.7179   -9.3721    0.0000 O   0  0  0  0  0  0  0  0  0  0  0  0
  -21.4014  -10.6063    0.0000 C   0  0  0  0  0  0  0  0  0  0  0  0
  -20.3178  -11.6436    0.0000 O   0  0  0  0  0  0  0  0  0  0  0  0
  -22.7795  -11.1985    0.0000 N   0  0  0  0  0  0  0  0  0  0  0  0
  -22.9558  -12.6881    0.0000 C   0  0  0  0  0  0  0  0  0  0  0  0
  -22.6119  -14.1482    0.0000 C   0  0  0  0  0  0  0  0  0  0  0  0
  -23.7044  -15.1760    0.0000 C   0  0  0  0  0  0  0  0  0  0  0  0
  -23.3605  -16.6361    0.0000 N   0  0  0  0  0  0  0  0  0  0  0  0
  -25.1827  -14.9221    0.0000 O   0  0  0  0  0  0  0  0  0  0  0  0
  -24.3339  -13.2803    0.0000 C   0  0  0  0  0  0  0  0  0  0  0  0
  -24.6904  -14.7374    0.0000 O   0  0  0  0  0  0  0  0  0  0  0  0
  -25.5358  -12.3829    0.0000 O   0  0  0  0  0  0  0  0  0  0  0  0
   38.5461    0.6892    0.0000 H   0  0  0  0  0  0  0  0  0  0  0  0
   38.7701   -3.7978    0.0000 H   0  0  0  0  0  0  0  0  0  0  0  0
   41.3818   -5.2738    0.0000 H   0  0  0  0  0  0  0  0  0  0  0  0
   40.9642    0.6780    0.0000 H   0  0  0  0  0  0  0  0  0  0  0  0
   47.8981    2.4767    0.0000 H   0  0  0  0  0  0  0  0  0  0  0  0
   49.0250   -2.5957    0.0000 H   0  0  0  0  0  0  0  0  0  0  0  0
   46.0964   -3.2464    0.0000 H   0  0  0  0  0  0  0  0  0  0  0  0
   50.9397   -0.8396    0.0000 H   0  0  0  0  0  0  0  0  0  0  0  0
   41.1401   -1.6861    0.0000 H   0  0  0  0  0  0  0  0  0  0  0  0
   39.0836    0.7057    0.0000 H   0  0  0  0  0  0  0  0  0  0  0  0
   42.9417    4.0370    0.0000 H   0  0  0  0  0  0  0  0  0  0  0  0
   40.4635    4.8171    0.0000 H   0  0  0  0  0  0  0  0  0  0  0  0
   36.1308    0.6782    0.0000 H   0  0  0  0  0  0  0  0  0  0  0  0
   35.8272   -2.7238    0.0000 H   0  0  0  0  0  0  0  0  0  0  0  0
   33.8989   -2.7415    0.0000 H   0  0  0  0  0  0  0  0  0  0  0  0
   34.5002    0.3123    0.0000 H   0  0  0  0  0  0  0  0  0  0  0  0
   32.7182    0.4049    0.0000 H   0  0  0  0  0  0  0  0  0  0  0  0
   31.7540    0.3960    0.0000 H   0  0  0  0  0  0  0  0  0  0  0  0
   29.9740    0.2707    0.0000 H   0  0  0  0  0  0  0  0  0  0  0  0
   30.6313   -2.7715    0.0000 H   0  0  0  0  0  0  0  0  0  0  0  0
   28.8512   -2.8968    0.0000 H   0  0  0  0  0  0  0  0  0  0  0  0
   27.8870   -2.9057    0.0000 H   0  0  0  0  0  0  0  0  0  0  0  0
   26.1050   -2.8131    0.0000 H   0  0  0  0  0  0  0  0  0  0  0  0
   26.7063    0.2407    0.0000 H   0  0  0  0  0  0  0  0  0  0  0  0
   24.9243    0.3333    0.0000 H   0  0  0  0  0  0  0  0  0  0  0  0
   23.9601    0.3245    0.0000 H   0  0  0  0  0  0  0  0  0  0  0  0
   22.1801    0.1992    0.0000 H   0  0  0  0  0  0  0  0  0  0  0  0
   22.8374   -2.8431    0.0000 H   0  0  0  0  0  0  0  0  0  0  0  0
   21.0573   -2.9684    0.0000 H   0  0  0  0  0  0  0  0  0  0  0  0
   20.0931   -2.9772    0.0000 H   0  0  0  0  0  0  0  0  0  0  0  0
   18.3111   -2.8846    0.0000 H   0  0  0  0  0  0  0  0  0  0  0  0
   18.9124    0.1692    0.0000 H   0  0  0  0  0  0  0  0  0  0  0  0
   17.1304    0.2618    0.0000 H   0  0  0  0  0  0  0  0  0  0  0  0
   16.1662    0.2529    0.0000 H   0  0  0  0  0  0  0  0  0  0  0  0
   14.3862    0.1276    0.0000 H   0  0  0  0  0  0  0  0  0  0  0  0
   15.0435   -2.9146    0.0000 H   0  0  0  0  0  0  0  0  0  0  0  0
   13.2634   -3.0399    0.0000 H   0  0  0  0  0  0  0  0  0  0  0  0
   12.2992   -3.0488    0.0000 H   0  0  0  0  0  0  0  0  0  0  0  0
   10.5172   -2.9562    0.0000 H   0  0  0  0  0  0  0  0  0  0  0  0
   11.1185    0.0976    0.0000 H   0  0  0  0  0  0  0  0  0  0  0  0
    9.1902    0.0799    0.0000 H   0  0  0  0  0  0  0  0  0  0  0  0
    7.5532    0.4158    0.0000 H   0  0  0  0  0  0  0  0  0  0  0  0
    5.7489   -0.4412    0.0000 H   0  0  0  0  0  0  0  0  0  0  0  0
    6.0600   -3.8999    0.0000 H   0  0  0  0  0  0  0  0  0  0  0  0
    9.8307   -3.7250    0.0000 H   0  0  0  0  0  0  0  0  0  0  0  0
   10.0164   -1.9503    0.0000 H   0  0  0  0  0  0  0  0  0  0  0  0
    8.5986   -1.2218    0.0000 H   0  0  0  0  0  0  0  0  0  0  0  0
    7.9720   -5.8780    0.0000 H   0  0  0  0  0  0  0  0  0  0  0  0
    6.3451   -4.8427    0.0000 H   0  0  0  0  0  0  0  0  0  0  0  0
    9.7810   -6.0426    0.0000 H   0  0  0  0  0  0  0  0  0  0  0  0
   10.7298   -4.3638    0.0000 H   0  0  0  0  0  0  0  0  0  0  0  0
    9.7798   -3.2326    0.0000 H   0  0  0  0  0  0  0  0  0  0  0  0
    4.3255    0.4343    0.0000 H   0  0  0  0  0  0  0  0  0  0  0  0
    2.3369    0.2460    0.0000 H   0  0  0  0  0  0  0  0  0  0  0  0
    2.8904   -4.1586    0.0000 H   0  0  0  0  0  0  0  0  0  0  0  0
    1.4018   -2.9327    0.0000 H   0  0  0  0  0  0  0  0  0  0  0  0
    5.8309   -2.6315    0.0000 H   0  0  0  0  0  0  0  0  0  0  0  0
    4.7057   -1.4469    0.0000 H   0  0  0  0  0  0  0  0  0  0  0  0
    6.7544   -6.0309    0.0000 H   0  0  0  0  0  0  0  0  0  0  0  0
    7.6488   -3.7000    0.0000 H   0  0  0  0  0  0  0  0  0  0  0  0
    1.2988    1.5556    0.0000 H   0  0  0  0  0  0  0  0  0  0  0  0
   -0.6343    2.0589    0.0000 H   0  0  0  0  0  0  0  0  0  0  0  0
   -1.6207   -2.2694    0.0000 H   0  0  0  0  0  0  0  0  0  0  0  0
   -2.6001   -0.6084    0.0000 H   0  0  0  0  0  0  0  0  0  0  0  0
    2.8462   -1.2768    0.0000 H   0  0  0  0  0  0  0  0  0  0  0  0
   -1.0787    3.4814    0.0000 H   0  0  0  0  0  0  0  0  0  0  0  0
   -2.3608    2.3640    0.0000 H   0  0  0  0  0  0  0  0  0  0  0  0
   -2.8257    1.0190    0.0000 H   0  0  0  0  0  0  0  0  0  0  0  0
   -2.7218    0.4417    0.0000 H   0  0  0  0  0  0  0  0  0  0  0  0
   -3.2666   -0.5029    0.0000 H   0  0  0  0  0  0  0  0  0  0  0  0
   -3.3374   -0.6551    0.0000 H   0  0  0  0  0  0  0  0  0  0  0  0
   -4.1373   -2.0195    0.0000 H   0  0  0  0  0  0  0  0  0  0  0  0
   -4.5881   -2.8985    0.0000 H   0  0  0  0  0  0  0  0  0  0  0  0
   -1.0990    3.9787    0.0000 H   0  0  0  0  0  0  0  0  0  0  0  0
   -1.4988    5.5629    0.0000 H   0  0  0  0  0  0  0  0  0  0  0  0
   -3.2723    5.7600    0.0000 H   0  0  0  0  0  0  0  0  0  0  0  0
   -3.0113    6.9702    0.0000 H   0  0  0  0  0  0  0  0  0  0  0  0
   -3.6890    7.7335    0.0000 H   0  0  0  0  0  0  0  0  0  0  0  0
   -4.5157   10.7090    0.0000 H   0  0  0  0  0  0  0  0  0  0  0  0
   -5.9322    9.8949    0.0000 H   0  0  0  0  0  0  0  0  0  0  0  0
   -2.8245    7.9182    0.0000 H   0  0  0  0  0  0  0  0  0  0  0  0
   -1.0630   11.1309    0.0000 H   0  0  0  0  0  0  0  0  0  0  0  0
   -2.4378   12.2686    0.0000 H   0  0  0  0  0  0  0  0  0  0  0  0
   -3.9277   11.2866    0.0000 H   0  0  0  0  0  0  0  0  0  0  0  0
   -0.4961   10.0129    0.0000 H   0  0  0  0  0  0  0  0  0  0  0  0
   -0.3906    8.2315    0.0000 H   0  0  0  0  0  0  0  0  0  0  0  0
   -2.2358    7.6713    0.0000 H   0  0  0  0  0  0  0  0  0  0  0  0
   -6.5140   11.1633    0.0000 H   0  0  0  0  0  0  0  0  0  0  0  0
   -7.4482   11.4844    0.0000 H   0  0  0  0  0  0  0  0  0  0  0  0
   -7.7571   13.0385    0.0000 H   0  0  0  0  0  0  0  0  0  0  0  0
   -9.4894   13.4667    0.0000 H   0  0  0  0  0  0  0  0  0  0  0  0
  -10.4054   11.9353    0.0000 H   0  0  0  0  0  0  0  0  0  0  0  0
  -11.3978   12.6754    0.0000 H   0  0  0  0  0  0  0  0  0  0  0  0
  -12.5401   12.4529    0.0000 H   0  0  0  0  0  0  0  0  0  0  0  0
  -15.3290   13.0169    0.0000 H   0  0  0  0  0  0  0  0  0  0  0  0
  -15.2716   11.2334    0.0000 H   0  0  0  0  0  0  0  0  0  0  0  0
  -11.0369   12.9367    0.0000 H   0  0  0  0  0  0  0  0  0  0  0  0
  -10.2546   15.6640    0.0000 H   0  0  0  0  0  0  0  0  0  0  0  0
  -12.2753   17.8813    0.0000 H   0  0  0  0  0  0  0  0  0  0  0  0
  -15.2060   17.2400    0.0000 H   0  0  0  0  0  0  0  0  0  0  0  0
  -16.1159   14.3813    0.0000 H   0  0  0  0  0  0  0  0  0  0  0  0
  -16.5066   11.3196    0.0000 H   0  0  0  0  0  0  0  0  0  0  0  0
  -17.3472   10.5148    0.0000 H   0  0  0  0  0  0  0  0  0  0  0  0
  -19.9984    9.4815    0.0000 H   0  0  0  0  0  0  0  0  0  0  0  0
  -18.9859    8.0121    0.0000 H   0  0  0  0  0  0  0  0  0  0  0  0
  -16.3442   11.7345    0.0000 H   0  0  0  0  0  0  0  0  0  0  0  0
  -17.1606   14.4518    0.0000 H   0  0  0  0  0  0  0  0  0  0  0  0
  -20.0594   15.2246    0.0000 H   0  0  0  0  0  0  0  0  0  0  0  0
  -22.1780   13.1006    0.0000 H   0  0  0  0  0  0  0  0  0  0  0  0
  -21.3980   10.2038    0.0000 H   0  0  0  0  0  0  0  0  0  0  0  0
  -20.1586    7.2558    0.0000 H   0  0  0  0  0  0  0  0  0  0  0  0
  -20.3435    6.2854    0.0000 H   0  0  0  0  0  0  0  0  0  0  0  0
  -22.0151    3.9828    0.0000 H   0  0  0  0  0  0  0  0  0  0  0  0
  -20.3689    3.2941    0.0000 H   0  0  0  0  0  0  0  0  0  0  0  0
  -23.2660    5.2999    0.0000 H   0  0  0  0  0  0  0  0  0  0  0  0
  -20.9603    2.2065    0.0000 H   0  0  0  0  0  0  0  0  0  0  0  0
  -20.5251    1.2831    0.0000 H   0  0  0  0  0  0  0  0  0  0  0  0
  -20.5702   -1.8048    0.0000 H   0  0  0  0  0  0  0  0  0  0  0  0
  -18.9817   -1.4227    0.0000 H   0  0  0  0  0  0  0  0  0  0  0  0
  -22.8556    0.5944    0.0000 H   0  0  0  0  0  0  0  0  0  0  0  0
  -21.4067    1.3495    0.0000 H   0  0  0  0  0  0  0  0  0  0  0  0
  -23.0034   -2.7157    0.0000 H   0  0  0  0  0  0  0  0  0  0  0  0
  -21.2971   -2.1933    0.0000 H   0  0  0  0  0  0  0  0  0  0  0  0
  -24.5088    0.3501    0.0000 H   0  0  0  0  0  0  0  0  0  0  0  0
  -27.3696   -3.1235    0.0000 H   0  0  0  0  0  0  0  0  0  0  0  0
  -25.2158   -4.8828    0.0000 H   0  0  0  0  0  0  0  0  0  0  0  0
  -22.9310   -3.8642    0.0000 H   0  0  0  0  0  0  0  0  0  0  0  0
  -18.8912   -2.6574    0.0000 H   0  0  0  0  0  0  0  0  0  0  0  0
  -15.1967   -5.1867    0.0000 H   0  0  0  0  0  0  0  0  0  0  0  0
  -16.3750   -4.7426    0.0000 H   0  0  0  0  0  0  0  0  0  0  0  0
  -13.7062   -5.7426    0.0000 H   0  0  0  0  0  0  0  0  0  0  0  0
  -14.7678   -5.4927    0.0000 H   0  0  0  0  0  0  0  0  0  0  0  0
  -11.9580   -5.9696    0.0000 H   0  0  0  0  0  0  0  0  0  0  0  0
  -13.2106   -5.8416    0.0000 H   0  0  0  0  0  0  0  0  0  0  0  0
  -10.1984   -5.8617    0.0000 H   0  0  0  0  0  0  0  0  0  0  0  0
  -11.4526   -5.9730    0.0000 H   0  0  0  0  0  0  0  0  0  0  0  0
   -8.4911   -5.4227    0.0000 H   0  0  0  0  0  0  0  0  0  0  0  0
   -9.7015   -5.7694    0.0000 H   0  0  0  0  0  0  0  0  0  0  0  0
   -6.7931   -4.5181    0.0000 H   0  0  0  0  0  0  0  0  0  0  0  0
   -8.0206   -5.2380    0.0000 H   0  0  0  0  0  0  0  0  0  0  0  0
   -5.8883   -4.1218    0.0000 H   0  0  0  0  0  0  0  0  0  0  0  0
  -18.5943   -4.7411    0.0000 H   0  0  0  0  0  0  0  0  0  0  0  0
  -19.4749   -3.3649    0.0000 H   0  0  0  0  0  0  0  0  0  0  0  0
  -18.5760   -2.0006    0.0000 H   0  0  0  0  0  0  0  0  0  0  0  0
  -19.4188   -4.2089    0.0000 H   0  0  0  0  0  0  0  0  0  0  0  0
  -16.7951   -6.3576    0.0000 H   0  0  0  0  0  0  0  0  0  0  0  0
  -16.9795   -9.0475    0.0000 H   0  0  0  0  0  0  0  0  0  0  0  0
  -16.5706   -7.3106    0.0000 H   0  0  0  0  0  0  0  0  0  0  0  0
  -20.3565   -8.2093    0.0000 H   0  0  0  0  0  0  0  0  0  0  0  0
  -19.5087  -11.6523    0.0000 H   0  0  0  0  0  0  0  0  0  0  0  0
  -17.8749  -11.6450    0.0000 H   0  0  0  0  0  0  0  0  0  0  0  0
  -17.2573   -9.9709    0.0000 H   0  0  0  0  0  0  0  0  0  0  0  0
  -21.8028   -8.9429    0.0000 H   0  0  0  0  0  0  0  0  0  0  0  0
  -21.0709  -10.8739    0.0000 H   0  0  0  0  0  0  0  0  0  0  0  0
  -19.7559  -10.8681    0.0000 H   0  0  0  0  0  0  0  0  0  0  0  0
  -18.8979   -9.6861    0.0000 H   0  0  0  0  0  0  0  0  0  0  0  0
  -21.3885   -7.6256    0.0000 H   0  0  0  0  0  0  0  0  0  0  0  0
  -24.1628   -9.6216    0.0000 H   0  0  0  0  0  0  0  0  0  0  0  0
  -22.9251  -10.6881    0.0000 H   0  0  0  0  0  0  0  0  0  0  0  0
  -23.8891   -6.4874    0.0000 H   0  0  0  0  0  0  0  0  0  0  0  0
  -22.2496   -7.1917    0.0000 H   0  0  0  0  0  0  0  0  0  0  0  0
  -27.3629   -6.8633    0.0000 H   0  0  0  0  0  0  0  0  0  0  0  0
  -25.0320   -5.5310    0.0000 H   0  0  0  0  0  0  0  0  0  0  0  0
  -24.0819  -10.4543    0.0000 H   0  0  0  0  0  0  0  0  0  0  0  0
  -21.4582  -12.6030    0.0000 H   0  0  0  0  0  0  0  0  0  0  0  0
  -21.7894  -15.4026    0.0000 H   0  0  0  0  0  0  0  0  0  0  0  0
  -21.2337  -13.5560    0.0000 H   0  0  0  0  0  0  0  0  0  0  0  0
  -24.4530  -17.6639    0.0000 H   0  0  0  0  0  0  0  0  0  0  0  0
  -21.9241  -17.0683    0.0000 H   0  0  0  0  0  0  0  0  0  0  0  0
  -26.9140  -12.9751    0.0000 H   0  0  0  0  0  0  0  0  0  0  0  0
  1  2  1  0
  2  3  1  0
  3  4  2  0
  4  5  1  0
  5  6  2  0
  6  7  1  0
  7  8  2  0
  7  9  1  0
  9 10  1  0
 10 11  1  0
 11 12  2  0
  9 13  1  0
 13 14  1  0
 14 15  2  0
 15 16  1  0
 16 17  2  0
 17 18  1  0
 16 19  1  0
 14 20  1  0
 20 21  1  0
 21 22  2  0
 22 23  1  0
 23 24  2  0
 24 25  1  0
 25 26  2  0
 25 27  1  0
  1 28  2  0
  1 29  1  0
 29 30  1  0
 30 31  1  0
 31 32  1  0
 32 33  1  0
 33 34  1  0
 34 35  1  0
 35 36  1  0
 36 37  1  0
 37 38  1  0
 38 39  1  0
 39 40  1  0
 40 41  1  0
 41 42  1  0
 42 43  1  0
 43 44  1  0
 44 45  1  0
 45 46  1  0
 46 47  1  0
 47 48  1  0
 48 49  1  0
 49 50  1  0
 50 51  2  0
 50 52  1  0
 52 53  1  0
 53 54  1  0
 54 55  1  0
 54 56  1  0
 56 57  1  0
 53 58  1  0
 58 59  2  0
 58 60  1  0
 60 61  1  0
 61 62  1  0
 62 63  1  0
 63 64  1  0
 64 65  1  0
 64 66  2  0
 61 67  1  0
 67 68  2  0
 67 69  1  0
 69 70  1  0
 70 71  1  0
 71 72  1  0
 72 73  2  0
 72 74  1  0
 70 75  1  0
 75 76  2  0
 75 77  1  0
 78 77  1  1
 78 79  1  0
 79 80  1  0
 80 81  1  0
 81 82  1  0
 78 83  1  0
 78 84  1  0
 84 85  2  0
 84 86  1  0
 86 87  1  0
 87 88  1  0
 88 89  1  0
 89 90  1  0
 89 91  1  0
 87 92  1  0
 92 93  2  0
 92 94  1  0
 94 95  1  0
 95 96  1  0
 95 97  1  0
 97 98  2  0
 97 99  1  0
 99100  1  0
100101  1  0
101102  1  0
102103  2  0
103104  1  0
104105  2  0
105106  1  0
106107  2  0
100108  1  0
108109  2  0
108110  1  0
110111  1  0
111112  1  0
112113  1  0
113114  2  0
114115  1  0
115116  2  0
116117  1  0
117118  2  0
111119  1  0
119120  2  0
119121  1  0
121122  1  0
122123  1  0
123124  1  0
122125  1  0
125126  2  0
125127  1  0
127128  1  0
128129  1  0
129130  1  0
130131  1  0
131132  1  0
132133  1  0
133134  2  3
133135  1  0
128136  1  0
136137  2  0
136138  1  0
138139  1  0
139140  1  0
140141  1  0
141142  1  0
142143  1  0
143144  1  0
144145  1  0
145146  1  0
139147  1  0
139148  1  6
148149  2  0
148150  1  0
150151  1  0
151152  1  0
152153  1  0
153154  1  0
153155  1  0
151156  1  0
156157  2  0
156158  1  0
158159  1  0
159160  1  0
160161  1  0
161162  1  0
162163  1  0
162164  2  0
159165  1  0
165166  2  0
165167  1  0
167168  1  0
168169  1  0
169170  1  0
170171  1  0
170172  2  0
168173  1  0
173174  2  0
173175  1  0
  8  3  1  0
107102  1  0
118113  1  0
 11  6  1  0
 82146  2  0
 18 13  2  0
 22  9  1  0
 26 21  1  0
  2176  1  0
  4177  1  0
  5178  1  0
  8179  1  0
 15180  1  0
 17181  1  0
 18182  1  0
 19183  1  0
 23184  1  0
 24185  1  0
 26186  1  0
 27187  1  0
 29188  1  0
 30189  1  0
 30190  1  0
 31191  1  0
 31192  1  0
 33193  1  0
 33194  1  0
 34195  1  0
 34196  1  0
 36197  1  0
 36198  1  0
 37199  1  0
 37200  1  0
 39201  1  0
 39202  1  0
 40203  1  0
 40204  1  0
 42205  1  0
 42206  1  0
 43207  1  0
 43208  1  0
 45209  1  0
 45210  1  0
 46211  1  0
 46212  1  0
 48213  1  0
 48214  1  0
 49215  1  0
 49216  1  0
 52217  1  0
 53218  1  1
 54219  1  6
 55220  1  0
 55221  1  0
 55222  1  0
 56223  1  0
 56224  1  0
 57225  1  0
 57226  1  0
 57227  1  0
 60228  1  0
 61229  1  1
 62230  1  0
 62231  1  0
 63232  1  0
 63233  1  0
 65234  1  0
 65235  1  0
 69236  1  0
 70237  1  1
 71238  1  0
 71239  1  0
 74240  1  0
 77241  1  0
 79242  1  0
 79243  1  0
 80244  1  0
 80245  1  0
 81246  1  0
 81247  1  0
 82248  1  0
 83249  1  0
 83250  1  0
 83251  1  0
 86252  1  0
 87253  1  6
 88254  1  0
 88255  1  0
 89256  1  0
 90257  1  0
 90258  1  0
 90259  1  0
 91260  1  0
 91261  1  0
 91262  1  0
 94263  1  0
 95264  1  6
 96265  1  0
 96266  1  0
 96267  1  0
 99268  1  0
100269  1  6
101270  1  0
101271  1  0
103272  1  0
104273  1  0
105274  1  0
106275  1  0
107276  1  0
110277  1  0
111278  1  6
112279  1  0
112280  1  0
114281  1  0
115282  1  0
116283  1  0
117284  1  0
118285  1  0
121286  1  0
122287  1  6
123288  1  0
123289  1  0
124290  1  0
127291  1  0
128292  1  6
129293  1  0
129294  1  0
130295  1  0
130296  1  0
131297  1  0
131298  1  0
132299  1  0
134300  1  0
135301  1  0
135302  1  0
138303  1  0
140304  1  0
140305  1  0
141306  1  0
141307  1  0
142308  1  0
142309  1  0
143310  1  0
143311  1  0
144312  1  0
144313  1  0
145314  1  0
145315  1  0
146316  1  0
147317  1  0
147318  1  0
147319  1  0
150320  1  0
151321  1  1
152322  1  0
152323  1  0
153324  1  0
154325  1  0
154326  1  0
154327  1  0
155328  1  0
155329  1  0
155330  1  0
158331  1  0
159332  1  6
160333  1  0
160334  1  0
161335  1  0
161336  1  0
163337  1  0
163338  1  0
167339  1  0
168340  1  1
169341  1  0
169342  1  0
171343  1  0
171344  1  0
175345  1  0
M  END
