
     RDKit          2D

208214  0  0  0  0  0  0  0  0999 V2000
   14.6989   -0.6520    0.0000 C   0  0  0  0  0  0  0  0  0  0  0  0
   16.0573   -0.0158    0.0000 N   0  0  0  0  0  0  0  0  0  0  0  0
   17.2875   -0.8741    0.0000 C   0  0  0  0  0  0  0  0  0  0  0  0
   17.1592   -2.3686    0.0000 C   0  0  0  0  0  0  0  0  0  0  0  0
   18.3894   -3.2269    0.0000 C   0  0  0  0  0  0  0  0  0  0  0  0
   19.7478   -2.5907    0.0000 C   0  0  0  0  0  0  0  0  0  0  0  0
   19.8760   -1.0962    0.0000 C   0  0  0  0  0  0  0  0  0  0  0  0
   18.6459   -0.2379    0.0000 C   0  0  0  0  0  0  0  0  0  0  0  0
   21.3370   -0.7564    0.0000 C   0  0  0  0  0  0  0  0  0  0  0  0
   22.1117   -2.0408    0.0000 O   0  0  0  0  0  0  0  0  0  0  0  0
   21.1295   -3.1745    0.0000 C   0  0  0  0  0  0  0  0  0  0  0  0
   21.4694   -4.6355    0.0000 O   0  0  0  0  0  0  0  0  0  0  0  0
   22.8255   -0.5711    0.0000 C   0  0  0  0  0  0  0  0  0  0  0  0
   23.4093    0.8107    0.0000 C   0  0  0  0  0  0  0  0  0  0  0  0
   24.8978    0.9959    0.0000 C   0  0  0  0  0  0  0  0  0  0  0  0
   25.8026   -0.2005    0.0000 C   0  0  0  0  0  0  0  0  0  0  0  0
   25.2188   -1.5822    0.0000 C   0  0  0  0  0  0  0  0  0  0  0  0
   23.7302   -1.7675    0.0000 C   0  0  0  0  0  0  0  0  0  0  0  0
   27.2911   -0.0152    0.0000 O   0  0  0  0  0  0  0  0  0  0  0  0
   22.5046    2.0071    0.0000 O   0  0  0  0  0  0  0  0  0  0  0  0
   21.0161    1.8218    0.0000 C   0  0  0  0  0  0  0  0  0  0  0  0
   20.4323    0.4401    0.0000 C   0  0  0  0  0  0  0  0  0  0  0  0
   19.2162    0.8996    0.0000 C   0  0  0  0  0  0  0  0  0  0  0  0
   18.7337    1.5377    0.0000 C   0  0  0  0  0  0  0  0  0  0  0  0
   19.0451    2.2747    0.0000 C   0  0  0  0  0  0  0  0  0  0  0  0
   19.8389    2.3735    0.0000 C   0  0  0  0  0  0  0  0  0  0  0  0
   17.7182    4.0294    0.0000 O   0  0  0  0  0  0  0  0  0  0  0  0
   14.5707   -2.1465    0.0000 S   0  0  0  0  0  0  0  0  0  0  0  0
   13.4687    0.2064    0.0000 N   0  0  0  0  0  0  0  0  0  0  0  0
   12.1103   -0.4298    0.0000 C   0  0  0  0  0  0  0  0  0  0  0  0
   10.8802    0.4285    0.0000 C   0  0  0  0  0  0  0  0  0  0  0  0
    9.5218   -0.2077    0.0000 C   0  0  0  0  0  0  0  0  0  0  0  0
    9.3935   -1.7022    0.0000 O   0  0  0  0  0  0  0  0  0  0  0  0
    8.2916    0.6506    0.0000 N   0  0  0  0  0  0  0  0  0  0  0  0
    6.9332    0.0144    0.0000 C   0  0  0  0  0  0  0  0  0  0  0  0
    5.8743   -1.0480    0.0000 C   0  0  0  0  0  0  0  0  0  0  0  0
    4.4248   -0.6622    0.0000 C   0  0  0  0  0  0  0  0  0  0  0  0
    3.3659   -1.7246    0.0000 C   0  0  0  0  0  0  0  0  0  0  0  0
    1.9164   -1.3388    0.0000 N   0  0  0  0  0  0  0  0  0  0  0  0
    0.8575   -2.4012    0.0000 C   0  0  0  0  0  0  0  0  0  0  0  0
   -0.5342   -1.8416    0.0000 N   0  0  0  0  0  0  0  0  0  0  0  0
    1.2481   -3.8494    0.0000 N   0  0  0  0  0  0  0  0  0  0  0  0
    5.7031    0.8728    0.0000 C   0  0  0  0  0  0  0  0  0  0  0  0
    5.8313    2.3673    0.0000 O   0  0  0  0  0  0  0  0  0  0  0  0
    4.3447    0.2366    0.0000 N   0  0  0  0  0  0  0  0  0  0  0  0
    3.1145    1.0949    0.0000 C   0  0  0  0  0  0  0  0  0  0  0  0
    2.2521    2.3222    0.0000 C   0  0  0  0  0  0  0  0  0  0  0  0
    2.8837    3.6827    0.0000 C   0  0  0  0  0  0  0  0  0  0  0  0
    2.0213    4.9100    0.0000 C   0  0  0  0  0  0  0  0  0  0  0  0
    2.6530    6.2705    0.0000 C   0  0  0  0  0  0  0  0  0  0  0  0
    1.7906    7.4978    0.0000 N   0  0  0  0  0  0  0  0  0  0  0  0
    1.7561    0.4587    0.0000 C   0  0  0  0  0  0  0  0  0  0  0  0
    1.4017   -0.5758    0.0000 O   0  0  0  0  0  0  0  0  0  0  0  0
    0.5259    1.3170    0.0000 N   0  0  0  0  0  0  0  0  0  0  0  0
   -0.8325    0.6808    0.0000 C   0  0  0  0  0  0  0  0  0  0  0  0
   -1.8914   -0.3816    0.0000 C   0  0  0  0  0  0  0  0  0  0  0  0
   -2.0626    1.5392    0.0000 C   0  0  0  0  0  0  0  0  0  0  0  0
   -1.7532    3.0069    0.0000 O   0  0  0  0  0  0  0  0  0  0  0  0
   -3.4210    0.9030    0.0000 N   0  0  0  0  0  0  0  0  0  0  0  0
   -4.6512    1.7613    0.0000 C   0  0  0  0  0  0  0  0  0  0  0  0
   -4.8216    3.2516    0.0000 C   0  0  0  0  0  0  0  0  0  0  0  0
   -5.4237    4.6254    0.0000 C   0  0  0  0  0  0  0  0  0  0  0  0
   -6.4041    5.7607    0.0000 C   0  0  0  0  0  0  0  0  0  0  0  0
   -7.6755    6.5567    0.0000 C   0  0  0  0  0  0  0  0  0  0  0  0
   -3.2788    2.3668    0.0000 C   0  0  0  0  0  0  0  0  0  0  0  0
   -4.9276    0.2870    0.0000 C   0  0  0  0  0  0  0  0  0  0  0  0
   -3.6724   -0.5342    0.0000 O   0  0  0  0  0  0  0  0  0  0  0  0
   -5.6263   -1.0404    0.0000 N   0  0  0  0  0  0  0  0  0  0  0  0
   -6.6852   -2.1028    0.0000 C   0  0  0  0  0  0  0  0  0  0  0  0
   -6.5893   -3.5997    0.0000 C   0  0  0  0  0  0  0  0  0  0  0  0
   -5.2449   -4.2651    0.0000 C   0  0  0  0  0  0  0  0  0  0  0  0
   -5.1490   -5.7620    0.0000 C   0  0  0  0  0  0  0  0  0  0  0  0
   -3.8047   -6.4274    0.0000 N   0  0  0  0  0  0  0  0  0  0  0  0
   -3.7087   -7.9244    0.0000 C   0  0  0  0  0  0  0  0  0  0  0  0
   -2.3644   -8.5897    0.0000 N   0  0  0  0  0  0  0  0  0  0  0  0
   -4.9571   -8.7559    0.0000 N   0  0  0  0  0  0  0  0  0  0  0  0
   -8.0102   -2.8059    0.0000 C   0  0  0  0  0  0  0  0  0  0  0  0
   -7.5124   -4.2209    0.0000 O   0  0  0  0  0  0  0  0  0  0  0  0
   -9.4836   -3.0872    0.0000 N   0  0  0  0  0  0  0  0  0  0  0  0
  -10.9744   -2.9218    0.0000 C   0  0  0  0  0  0  0  0  0  0  0  0
  -12.0850   -3.9301    0.0000 C   0  0  0  0  0  0  0  0  0  0  0  0
  -11.7670   -5.3960    0.0000 C   0  0  0  0  0  0  0  0  0  0  0  0
  -12.8775   -6.4043    0.0000 C   0  0  0  0  0  0  0  0  0  0  0  0
  -10.9668   -6.6647    0.0000 C   0  0  0  0  0  0  0  0  0  0  0  0
  -12.3503   -2.3242    0.0000 C   0  0  0  0  0  0  0  0  0  0  0  0
  -13.1462   -3.5956    0.0000 O   0  0  0  0  0  0  0  0  0  0  0  0
  -13.4889   -1.3477    0.0000 N   0  0  0  0  0  0  0  0  0  0  0  0
  -14.2890   -0.0789    0.0000 C   0  0  0  0  0  0  0  0  0  0  0  0
  -15.7698    0.1607    0.0000 C   0  0  0  0  0  0  0  0  0  0  0  0
  -16.7176   -1.0019    0.0000 C   0  0  0  0  0  0  0  0  0  0  0  0
  -18.1984   -0.7623    0.0000 C   0  0  0  0  0  0  0  0  0  0  0  0
  -19.1462   -1.9249    0.0000 C   0  0  0  0  0  0  0  0  0  0  0  0
  -18.6133   -3.3271    0.0000 C   0  0  0  0  0  0  0  0  0  0  0  0
  -17.1326   -3.5666    0.0000 C   0  0  0  0  0  0  0  0  0  0  0  0
  -16.1847   -2.4041    0.0000 C   0  0  0  0  0  0  0  0  0  0  0  0
  -14.6797    1.3693    0.0000 C   0  0  0  0  0  0  0  0  0  0  0  0
  -16.1699    1.1989    0.0000 O   0  0  0  0  0  0  0  0  0  0  0  0
  -14.6261    2.8684    0.0000 N   0  0  0  0  0  0  0  0  0  0  0  0
  -14.1330    4.2850    0.0000 C   0  0  0  0  0  0  0  0  0  0  0  0
  -13.2443    5.4934    0.0000 C   0  0  0  0  0  0  0  0  0  0  0  0
  -12.0389    6.3861    0.0000 C   0  0  0  0  0  0  0  0  0  0  0  0
  -10.6239    6.8839    0.0000 C   0  0  0  0  0  0  0  0  0  0  0  0
   -9.1250    6.9425    0.0000 C   0  0  0  0  0  0  0  0  0  0  0  0
  -15.6271    4.1518    0.0000 C   0  0  0  0  0  0  0  0  0  0  0  0
  -14.8689    5.5921    0.0000 C   0  0  0  0  0  0  0  0  0  0  0  0
  -16.3557    5.7910    0.0000 O   0  0  0  0  0  0  0  0  0  0  0  0
  -14.4400    7.0295    0.0000 O   0  0  0  0  0  0  0  0  0  0  0  0
   16.0024    1.4832    0.0000 H   0  0  0  0  0  0  0  0  0  0  0  0
   15.8008   -3.0048    0.0000 H   0  0  0  0  0  0  0  0  0  0  0  0
   18.2611   -4.7214    0.0000 H   0  0  0  0  0  0  0  0  0  0  0  0
   18.5198    0.5492    0.0000 H   0  0  0  0  0  0  0  0  0  0  0  0
   25.4816    2.3777    0.0000 H   0  0  0  0  0  0  0  0  0  0  0  0
   26.1235   -2.7787    0.0000 H   0  0  0  0  0  0  0  0  0  0  0  0
   23.1464   -3.1493    0.0000 H   0  0  0  0  0  0  0  0  0  0  0  0
   28.1958   -1.2117    0.0000 H   0  0  0  0  0  0  0  0  0  0  0  0
   18.3600   -1.1269    0.0000 H   0  0  0  0  0  0  0  0  0  0  0  0
   16.5391    1.4488    0.0000 H   0  0  0  0  0  0  0  0  0  0  0  0
   20.6952    4.4000    0.0000 H   0  0  0  0  0  0  0  0  0  0  0  0
   18.3020    5.4112    0.0000 H   0  0  0  0  0  0  0  0  0  0  0  0
   13.5970    1.7009    0.0000 H   0  0  0  0  0  0  0  0  0  0  0  0
   11.0514   -1.4922    0.0000 H   0  0  0  0  0  0  0  0  0  0  0  0
   12.9727   -1.6571    0.0000 H   0  0  0  0  0  0  0  0  0  0  0  0
   10.0178    1.6558    0.0000 H   0  0  0  0  0  0  0  0  0  0  0  0
   11.9391    1.4909    0.0000 H   0  0  0  0  0  0  0  0  0  0  0  0
    8.4199    2.1451    0.0000 H   0  0  0  0  0  0  0  0  0  0  0  0
    7.7956   -1.2129    0.0000 H   0  0  0  0  0  0  0  0  0  0  0  0
    5.4132   -2.4753    0.0000 H   0  0  0  0  0  0  0  0  0  0  0  0
    7.1045   -1.9063    0.0000 H   0  0  0  0  0  0  0  0  0  0  0  0
    3.1946    0.1962    0.0000 H   0  0  0  0  0  0  0  0  0  0  0  0
    4.3436    0.8356    0.0000 H   0  0  0  0  0  0  0  0  0  0  0  0
    2.7342   -3.0851    0.0000 H   0  0  0  0  0  0  0  0  0  0  0  0
    4.4823   -2.7265    0.0000 H   0  0  0  0  0  0  0  0  0  0  0  0
    1.1869   -0.0281    0.0000 H   0  0  0  0  0  0  0  0  0  0  0  0
   -1.6510   -3.0778    0.0000 H   0  0  0  0  0  0  0  0  0  0  0  0
    0.1892   -4.9119    0.0000 H   0  0  0  0  0  0  0  0  0  0  0  0
    2.6976   -4.2353    0.0000 H   0  0  0  0  0  0  0  0  0  0  0  0
    3.8586   -1.1825    0.0000 H   0  0  0  0  0  0  0  0  0  0  0  0
    4.2950    2.0203    0.0000 H   0  0  0  0  0  0  0  0  0  0  0  0
    1.0219    3.1805    0.0000 H   0  0  0  0  0  0  0  0  0  0  0  0
    0.9676    1.5476    0.0000 H   0  0  0  0  0  0  0  0  0  0  0  0
    4.0643    4.6081    0.0000 H   0  0  0  0  0  0  0  0  0  0  0  0
    4.2094    2.9807    0.0000 H   0  0  0  0  0  0  0  0  0  0  0  0
    0.7912    5.7683    0.0000 H   0  0  0  0  0  0  0  0  0  0  0  0
    0.8408    3.9846    0.0000 H   0  0  0  0  0  0  0  0  0  0  0  0
    3.7119    7.3329    0.0000 H   0  0  0  0  0  0  0  0  0  0  0  0
    3.9786    5.5685    0.0000 H   0  0  0  0  0  0  0  0  0  0  0  0
    2.4223    8.8583    0.0000 H   0  0  0  0  0  0  0  0  0  0  0  0
    0.2965    7.3646    0.0000 H   0  0  0  0  0  0  0  0  0  0  0  0
    0.4710    2.8160    0.0000 H   0  0  0  0  0  0  0  0  0  0  0  0
    0.0299   -0.5465    0.0000 H   0  0  0  0  0  0  0  0  0  0  0  0
   -3.3523   -0.7216    0.0000 H   0  0  0  0  0  0  0  0  0  0  0  0
   -2.5230   -1.7421    0.0000 H   0  0  0  0  0  0  0  0  0  0  0  0
   -0.5658   -1.0836    0.0000 H   0  0  0  0  0  0  0  0  0  0  0  0
   -3.5493   -0.5915    0.0000 H   0  0  0  0  0  0  0  0  0  0  0  0
   -3.3480    2.9715    0.0000 H   0  0  0  0  0  0  0  0  0  0  0  0
   -3.8170    4.3655    0.0000 H   0  0  0  0  0  0  0  0  0  0  0  0
   -3.9645    4.9726    0.0000 H   0  0  0  0  0  0  0  0  0  0  0  0
   -4.6310    5.8988    0.0000 H   0  0  0  0  0  0  0  0  0  0  0  0
   -5.0287    6.3595    0.0000 H   0  0  0  0  0  0  0  0  0  0  0  0
   -6.2015    7.2470    0.0000 H   0  0  0  0  0  0  0  0  0  0  0  0
   -7.0779    7.9325    0.0000 H   0  0  0  0  0  0  0  0  0  0  0  0
   -2.9786    4.0055    0.0000 H   0  0  0  0  0  0  0  0  0  0  0  0
   -1.9540    2.9769    0.0000 H   0  0  0  0  0  0  0  0  0  0  0  0
   -2.5434    1.2729    0.0000 H   0  0  0  0  0  0  0  0  0  0  0  0
   -4.4179   -1.9291    0.0000 H   0  0  0  0  0  0  0  0  0  0  0  0
   -5.2274   -2.4559    0.0000 H   0  0  0  0  0  0  0  0  0  0  0  0
   -7.1834   -4.9770    0.0000 H   0  0  0  0  0  0  0  0  0  0  0  0
   -8.0759   -3.7999    0.0000 H   0  0  0  0  0  0  0  0  0  0  0  0
   -3.7541   -4.4306    0.0000 H   0  0  0  0  0  0  0  0  0  0  0  0
   -4.6508   -2.8878    0.0000 H   0  0  0  0  0  0  0  0  0  0  0  0
   -5.5708   -7.2015    0.0000 H   0  0  0  0  0  0  0  0  0  0  0  0
   -6.6489   -5.7795    0.0000 H   0  0  0  0  0  0  0  0  0  0  0  0
   -2.5562   -5.5959    0.0000 H   0  0  0  0  0  0  0  0  0  0  0  0
   -2.2684  -10.0867    0.0000 H   0  0  0  0  0  0  0  0  0  0  0  0
   -4.8612  -10.2528    0.0000 H   0  0  0  0  0  0  0  0  0  0  0  0
   -6.3015   -8.0905    0.0000 H   0  0  0  0  0  0  0  0  0  0  0  0
   -9.4250   -4.5861    0.0000 H   0  0  0  0  0  0  0  0  0  0  0  0
  -10.3416   -4.2817    0.0000 H   0  0  0  0  0  0  0  0  0  0  0  0
  -13.5322   -4.3243    0.0000 H   0  0  0  0  0  0  0  0  0  0  0  0
  -13.1684   -2.8926    0.0000 H   0  0  0  0  0  0  0  0  0  0  0  0
  -10.3197   -5.0018    0.0000 H   0  0  0  0  0  0  0  0  0  0  0  0
  -12.7406   -7.8980    0.0000 H   0  0  0  0  0  0  0  0  0  0  0  0
  -14.2660   -6.9720    0.0000 H   0  0  0  0  0  0  0  0  0  0  0  0
  -13.8264   -5.2425    0.0000 H   0  0  0  0  0  0  0  0  0  0  0  0
  -11.4985   -8.0673    0.0000 H   0  0  0  0  0  0  0  0  0  0  0  0
   -9.7810   -7.5833    0.0000 H   0  0  0  0  0  0  0  0  0  0  0  0
   -9.8563   -5.6564    0.0000 H   0  0  0  0  0  0  0  0  0  0  0  0
  -14.4962   -2.4591    0.0000 H   0  0  0  0  0  0  0  0  0  0  0  0
  -15.1164   -1.3301    0.0000 H   0  0  0  0  0  0  0  0  0  0  0  0
  -17.0793    0.8922    0.0000 H   0  0  0  0  0  0  0  0  0  0  0  0
  -15.6341    1.6545    0.0000 H   0  0  0  0  0  0  0  0  0  0  0  0
  -18.7313    0.6398    0.0000 H   0  0  0  0  0  0  0  0  0  0  0  0
  -20.6270   -1.6853    0.0000 H   0  0  0  0  0  0  0  0  0  0  0  0
  -19.5612   -4.4896    0.0000 H   0  0  0  0  0  0  0  0  0  0  0  0
  -16.5997   -4.9688    0.0000 H   0  0  0  0  0  0  0  0  0  0  0  0
  -14.7442   -2.8223    0.0000 H   0  0  0  0  0  0  0  0  0  0  0  0
  -16.1004    3.1448    0.0000 H   0  0  0  0  0  0  0  0  0  0  0  0
  -13.5622    6.9593    0.0000 H   0  0  0  0  0  0  0  0  0  0  0  0
  -14.5919    6.1521    0.0000 H   0  0  0  0  0  0  0  0  0  0  0  0
  -12.0938    7.8851    0.0000 H   0  0  0  0  0  0  0  0  0  0  0  0
  -13.1324    7.4128    0.0000 H   0  0  0  0  0  0  0  0  0  0  0  0
  -10.0608    8.2742    0.0000 H   0  0  0  0  0  0  0  0  0  0  0  0
  -11.5196    8.0871    0.0000 H   0  0  0  0  0  0  0  0  0  0  0  0
   -8.9595    8.4333    0.0000 H   0  0  0  0  0  0  0  0  0  0  0  0
  -16.6327    5.2648    0.0000 H   0  0  0  0  0  0  0  0  0  0  0  0
  -16.9855    3.5156    0.0000 H   0  0  0  0  0  0  0  0  0  0  0  0
  -15.5985    2.6521    0.0000 H   0  0  0  0  0  0  0  0  0  0  0  0
  -14.8409    8.1900    0.0000 H   0  0  0  0  0  0  0  0  0  0  0  0
  1  2  1  0
  2  3  1  0
  3  4  2  0
  4  5  1  0
  5  6  2  0
  6  7  1  0
  7  8  2  0
  7  9  1  0
  9 10  1  0
 10 11  1  0
 11 12  2  0
  9 13  1  0
 13 14  1  0
 14 15  2  0
 15 16  1  0
 16 17  2  0
 17 18  1  0
 16 19  1  0
 14 20  1  0
 20 21  1  0
 21 22  2  0
 22 23  1  0
 23 24  2  0
 24 25  1  0
 25 26  2  0
 25 27  1  0
  1 28  2  0
  1 29  1  0
 29 30  1  0
 30 31  1  0
 31 32  1  0
 32 33  2  0
 32 34  1  0
 34 35  1  0
 35 36  1  0
 36 37  1  0
 37 38  1  0
 38 39  1  0
 39 40  1  0
 40 41  2  3
 40 42  1  0
 35 43  1  0
 43 44  2  0
 43 45  1  0
 45 46  1  0
 46 47  1  0
 47 48  1  0
 48 49  1  0
 49 50  1  0
 50 51  1  0
 46 52  1  0
 52 53  2  0
 52 54  1  0
 54 55  1  0
 55 56  1  0
 55 57  1  0
 57 58  2  0
 57 59  1  0
 60 59  1  6
 60 61  1  0
 61 62  1  0
 62 63  1  0
 63 64  1  0
 60 65  1  0
 60 66  1  0
 66 67  2  0
 66 68  1  0
 68 69  1  0
 69 70  1  0
 70 71  1  0
 71 72  1  0
 72 73  1  0
 73 74  1  0
 74 75  2  3
 74 76  1  0
 69 77  1  0
 77 78  2  0
 77 79  1  0
 79 80  1  0
 80 81  1  0
 81 82  1  0
 82 83  1  0
 82 84  1  0
 80 85  1  0
 85 86  2  0
 85 87  1  0
 87 88  1  0
 88 89  1  0
 89 90  1  0
 90 91  2  0
 91 92  1  0
 92 93  2  0
 93 94  1  0
 94 95  2  0
 88 96  1  0
 96 97  2  0
 96 98  1  0
 98 99  1  0
 99100  1  0
100101  1  0
101102  1  0
102103  1  0
 99104  1  0
 99105  1  6
105106  2  0
105107  1  0
  8  3  1  0
 95 90  1  0
 11  6  1  0
 64103  2  0
 18 13  2  0
 22  9  1  0
 26 21  1  0
  2108  1  0
  4109  1  0
  5110  1  0
  8111  1  0
 15112  1  0
 17113  1  0
 18114  1  0
 19115  1  0
 23116  1  0
 24117  1  0
 26118  1  0
 27119  1  0
 29120  1  0
 30121  1  0
 30122  1  0
 31123  1  0
 31124  1  0
 34125  1  0
 35126  1  1
 36127  1  0
 36128  1  0
 37129  1  0
 37130  1  0
 38131  1  0
 38132  1  0
 39133  1  0
 41134  1  0
 42135  1  0
 42136  1  0
 45137  1  0
 46138  1  6
 47139  1  0
 47140  1  0
 48141  1  0
 48142  1  0
 49143  1  0
 49144  1  0
 50145  1  0
 50146  1  0
 51147  1  0
 51148  1  0
 54149  1  0
 55150  1  1
 56151  1  0
 56152  1  0
 56153  1  0
 59154  1  0
 61155  1  0
 61156  1  0
 62157  1  0
 62158  1  0
 63159  1  0
 63160  1  0
 64161  1  0
 65162  1  0
 65163  1  0
 65164  1  0
 68165  1  0
 69166  1  1
 70167  1  0
 70168  1  0
 71169  1  0
 71170  1  0
 72171  1  0
 72172  1  0
 73173  1  0
 75174  1  0
 76175  1  0
 76176  1  0
 79177  1  0
 80178  1  1
 81179  1  0
 81180  1  0
 82181  1  0
 83182  1  0
 83183  1  0
 83184  1  0
 84185  1  0
 84186  1  0
 84187  1  0
 87188  1  0
 88189  1  1
 89190  1  0
 89191  1  0
 91192  1  0
 92193  1  0
 93194  1  0
 94195  1  0
 95196  1  0
 98197  1  0
100198  1  0
100199  1  0
101200  1  0
101201  1  0
102202  1  0
102203  1  0
103204  1  0
104205  1  0
104206  1  0
104207  1  0
107208  1  0
M  END
