
     RDKit          2D

305305  0  0  0  0  0  0  0  0999 V2000
  -28.6937   -1.4647    0.0000 N   0  0  0  0  0  0  0  0  0  0  0  0
  -27.2114   -1.2349    0.0000 C   0  0  0  0  0  0  0  0  0  0  0  0
  -26.6693    0.1637    0.0000 C   0  0  0  0  0  0  0  0  0  0  0  0
  -25.1870    0.3936    0.0000 C   0  0  0  0  0  0  0  0  0  0  0  0
  -24.2468   -0.7752    0.0000 O   0  0  0  0  0  0  0  0  0  0  0  0
  -24.6449    1.7922    0.0000 N   0  0  0  0  0  0  0  0  0  0  0  0
  -23.1626    2.0220    0.0000 C   0  0  0  0  0  0  0  0  0  0  0  0
  -23.6463    3.4419    0.0000 C   0  0  0  0  0  0  0  0  0  0  0  0
  -22.6586    4.5707    0.0000 C   0  0  0  0  0  0  0  0  0  0  0  0
  -23.1423    5.9906    0.0000 C   0  0  0  0  0  0  0  0  0  0  0  0
  -21.3443    5.2937    0.0000 C   0  0  0  0  0  0  0  0  0  0  0  0
  -21.6911    1.7310    0.0000 C   0  0  0  0  0  0  0  0  0  0  0  0
  -20.9326    2.8478    0.0000 O   0  0  0  0  0  0  0  0  0  0  0  0
  -21.2074    0.3112    0.0000 N   0  0  0  0  0  0  0  0  0  0  0  0
  -19.7359    0.0202    0.0000 C   0  0  0  0  0  0  0  0  0  0  0  0
  -19.7048    1.5198    0.0000 C   0  0  0  0  0  0  0  0  0  0  0  0
  -18.3905    2.2428    0.0000 C   0  0  0  0  0  0  0  0  0  0  0  0
  -18.3595    3.7425    0.0000 C   0  0  0  0  0  0  0  0  0  0  0  0
  -17.0452    4.4654    0.0000 O   0  0  0  0  0  0  0  0  0  0  0  0
  -19.6427    4.5192    0.0000 O   0  0  0  0  0  0  0  0  0  0  0  0
  -18.4526   -0.7566    0.0000 C   0  0  0  0  0  0  0  0  0  0  0  0
  -17.1383   -0.0336    0.0000 O   0  0  0  0  0  0  0  0  0  0  0  0
  -18.4837   -2.2563    0.0000 N   0  0  0  0  0  0  0  0  0  0  0  0
  -17.2005   -3.0330    0.0000 C   0  0  0  0  0  0  0  0  0  0  0  0
  -18.1882   -4.1619    0.0000 C   0  0  0  0  0  0  0  0  0  0  0  0
  -19.6597   -3.8709    0.0000 C   0  0  0  0  0  0  0  0  0  0  0  0
  -20.6475   -4.9997    0.0000 N   0  0  0  0  0  0  0  0  0  0  0  0
  -20.0454   -3.0735    0.0000 O   0  0  0  0  0  0  0  0  0  0  0  0
  -15.7290   -3.3240    0.0000 C   0  0  0  0  0  0  0  0  0  0  0  0
  -15.4219   -4.7922    0.0000 O   0  0  0  0  0  0  0  0  0  0  0  0
  -14.7412   -2.1951    0.0000 N   0  0  0  0  0  0  0  0  0  0  0  0
  -13.2697   -2.4861    0.0000 C   0  0  0  0  0  0  0  0  0  0  0  0
  -13.8118   -3.8848    0.0000 C   0  0  0  0  0  0  0  0  0  0  0  0
  -12.8716   -5.0535    0.0000 C   0  0  0  0  0  0  0  0  0  0  0  0
  -13.4137   -6.4522    0.0000 C   0  0  0  0  0  0  0  0  0  0  0  0
  -12.4735   -7.6209    0.0000 N   0  0  0  0  0  0  0  0  0  0  0  0
  -13.0156   -9.0195    0.0000 C   0  0  0  0  0  0  0  0  0  0  0  0
  -12.0754  -10.1883    0.0000 N   0  0  0  0  0  0  0  0  0  0  0  0
  -14.4979   -9.2494    0.0000 N   0  0  0  0  0  0  0  0  0  0  0  0
  -11.7874   -2.2563    0.0000 C   0  0  0  0  0  0  0  0  0  0  0  0
  -10.9967   -3.5310    0.0000 O   0  0  0  0  0  0  0  0  0  0  0  0
  -11.2453   -0.8577    0.0000 N   0  0  0  0  0  0  0  0  0  0  0  0
   -9.7630   -0.6279    0.0000 C   0  0  0  0  0  0  0  0  0  0  0  0
   -9.7941   -2.1275    0.0000 C   0  0  0  0  0  0  0  0  0  0  0  0
   -8.5108   -2.9043    0.0000 C   0  0  0  0  0  0  0  0  0  0  0  0
   -8.5419   -4.4039    0.0000 C   0  0  0  0  0  0  0  0  0  0  0  0
   -7.2587   -5.1807    0.0000 N   0  0  0  0  0  0  0  0  0  0  0  0
   -9.8562   -5.1269    0.0000 O   0  0  0  0  0  0  0  0  0  0  0  0
   -8.4487    0.0951    0.0000 C   0  0  0  0  0  0  0  0  0  0  0  0
   -7.1655   -0.6816    0.0000 O   0  0  0  0  0  0  0  0  0  0  0  0
   -8.4177    1.5948    0.0000 N   0  0  0  0  0  0  0  0  0  0  0  0
   -7.1034    2.3177    0.0000 C   0  0  0  0  0  0  0  0  0  0  0  0
   -8.0436    3.4865    0.0000 C   0  0  0  0  0  0  0  0  0  0  0  0
   -9.5258    3.2567    0.0000 C   0  0  0  0  0  0  0  0  0  0  0  0
  -10.4660    4.4254    0.0000 C   0  0  0  0  0  0  0  0  0  0  0  0
  -11.9483    4.1956    0.0000 C   0  0  0  0  0  0  0  0  0  0  0  0
  -12.8885    5.3644    0.0000 N   0  0  0  0  0  0  0  0  0  0  0  0
   -5.6211    2.5475    0.0000 C   0  0  0  0  0  0  0  0  0  0  0  0
   -5.2535    4.0018    0.0000 O   0  0  0  0  0  0  0  0  0  0  0  0
   -4.6809    1.3788    0.0000 N   0  0  0  0  0  0  0  0  0  0  0  0
   -3.1986    1.6086    0.0000 C   0  0  0  0  0  0  0  0  0  0  0  0
   -3.6824    3.0284    0.0000 C   0  0  0  0  0  0  0  0  0  0  0  0
   -2.6946    4.1573    0.0000 C   0  0  0  0  0  0  0  0  0  0  0  0
   -3.1783    5.5772    0.0000 C   0  0  0  0  0  0  0  0  0  0  0  0
   -2.1906    6.7060    0.0000 C   0  0  0  0  0  0  0  0  0  0  0  0
   -2.6743    8.1259    0.0000 N   0  0  0  0  0  0  0  0  0  0  0  0
   -1.7271    1.3176    0.0000 C   0  0  0  0  0  0  0  0  0  0  0  0
   -0.8843    2.5584    0.0000 O   0  0  0  0  0  0  0  0  0  0  0  0
   -1.2434   -0.1023    0.0000 N   0  0  0  0  0  0  0  0  0  0  0  0
    0.2281   -0.3933    0.0000 C   0  0  0  0  0  0  0  0  0  0  0  0
    0.2592    1.1064    0.0000 C   0  0  0  0  0  0  0  0  0  0  0  0
    1.5735    1.8294    0.0000 C   0  0  0  0  0  0  0  0  0  0  0  0
    1.6045    3.3290    0.0000 C   0  0  0  0  0  0  0  0  0  0  0  0
    3.0558    2.0592    0.0000 C   0  0  0  0  0  0  0  0  0  0  0  0
    1.5114   -1.1700    0.0000 C   0  0  0  0  0  0  0  0  0  0  0  0
    2.8256   -0.4471    0.0000 O   0  0  0  0  0  0  0  0  0  0  0  0
    1.4803   -2.6697    0.0000 N   0  0  0  0  0  0  0  0  0  0  0  0
    2.7635   -3.4464    0.0000 C   0  0  0  0  0  0  0  0  0  0  0  0
    1.7758   -4.5753    0.0000 C   0  0  0  0  0  0  0  0  0  0  0  0
    0.3043   -4.2843    0.0000 C   0  0  0  0  0  0  0  0  0  0  0  0
   -0.6835   -5.4131    0.0000 C   0  0  0  0  0  0  0  0  0  0  0  0
   -2.1550   -5.1221    0.0000 O   0  0  0  0  0  0  0  0  0  0  0  0
   -0.1998   -6.8330    0.0000 O   0  0  0  0  0  0  0  0  0  0  0  0
    4.2350   -3.7374    0.0000 C   0  0  0  0  0  0  0  0  0  0  0  0
    4.5421   -5.2057    0.0000 O   0  0  0  0  0  0  0  0  0  0  0  0
    5.2228   -2.6086    0.0000 N   0  0  0  0  0  0  0  0  0  0  0  0
    6.6943   -2.8996    0.0000 C   0  0  0  0  0  0  0  0  0  0  0  0
    7.4498   -4.1954    0.0000 C   0  0  0  0  0  0  0  0  0  0  0  0
    8.5537   -5.2110    0.0000 C   0  0  0  0  0  0  0  0  0  0  0  0
    9.9079   -5.8561    0.0000 C   0  0  0  0  0  0  0  0  0  0  0  0
   11.3920   -6.0734    0.0000 C   0  0  0  0  0  0  0  0  0  0  0  0
    5.6814   -4.0059    0.0000 C   0  0  0  0  0  0  0  0  0  0  0  0
    6.3543   -1.4386    0.0000 C   0  0  0  0  0  0  0  0  0  0  0  0
    4.8557   -1.3739    0.0000 O   0  0  0  0  0  0  0  0  0  0  0  0
    6.4601    0.0577    0.0000 N   0  0  0  0  0  0  0  0  0  0  0  0
    7.0022    1.4563    0.0000 C   0  0  0  0  0  0  0  0  0  0  0  0
    5.5044    1.3752    0.0000 C   0  0  0  0  0  0  0  0  0  0  0  0
    7.9325    2.6330    0.0000 C   0  0  0  0  0  0  0  0  0  0  0  0
    6.9076    3.7282    0.0000 O   0  0  0  0  0  0  0  0  0  0  0  0
    9.1683    3.4832    0.0000 N   0  0  0  0  0  0  0  0  0  0  0  0
   10.5997    3.9314    0.0000 C   0  0  0  0  0  0  0  0  0  0  0  0
    9.6025    5.0518    0.0000 C   0  0  0  0  0  0  0  0  0  0  0  0
   10.0742    6.4757    0.0000 C   0  0  0  0  0  0  0  0  0  0  0  0
    9.0769    7.5962    0.0000 N   0  0  0  0  0  0  0  0  0  0  0  0
   11.5432    6.7792    0.0000 O   0  0  0  0  0  0  0  0  0  0  0  0
   12.0997    3.9377    0.0000 C   0  0  0  0  0  0  0  0  0  0  0  0
   12.3170    5.4219    0.0000 O   0  0  0  0  0  0  0  0  0  0  0  0
   13.5349    3.5017    0.0000 N   0  0  0  0  0  0  0  0  0  0  0  0
   14.7779    2.6619    0.0000 C   0  0  0  0  0  0  0  0  0  0  0  0
   15.0321    4.1402    0.0000 C   0  0  0  0  0  0  0  0  0  0  0  0
   16.4394    4.6592    0.0000 C   0  0  0  0  0  0  0  0  0  0  0  0
   16.6937    6.1375    0.0000 C   0  0  0  0  0  0  0  0  0  0  0  0
   18.1010    6.6565    0.0000 N   0  0  0  0  0  0  0  0  0  0  0  0
   18.3552    8.1348    0.0000 C   0  0  0  0  0  0  0  0  0  0  0  0
   19.7626    8.6538    0.0000 N   0  0  0  0  0  0  0  0  0  0  0  0
   17.2021    9.0941    0.0000 N   0  0  0  0  0  0  0  0  0  0  0  0
   15.7180    1.4931    0.0000 C   0  0  0  0  0  0  0  0  0  0  0  0
   17.0139    2.2486    0.0000 O   0  0  0  0  0  0  0  0  0  0  0  0
   16.2720    0.0992    0.0000 N   0  0  0  0  0  0  0  0  0  0  0  0
   16.3904   -1.3962    0.0000 C   0  0  0  0  0  0  0  0  0  0  0  0
   16.0628   -2.8599    0.0000 C   0  0  0  0  0  0  0  0  0  0  0  0
   15.3183   -4.1621    0.0000 C   0  0  0  0  0  0  0  0  0  0  0  0
   14.2230   -5.1870    0.0000 C   0  0  0  0  0  0  0  0  0  0  0  0
   12.8743   -5.8436    0.0000 C   0  0  0  0  0  0  0  0  0  0  0  0
   17.6907   -2.1439    0.0000 C   0  0  0  0  0  0  0  0  0  0  0  0
   17.7047   -0.6732    0.0000 C   0  0  0  0  0  0  0  0  0  0  0  0
   17.9183    0.8115    0.0000 O   0  0  0  0  0  0  0  0  0  0  0  0
   18.9879   -1.4499    0.0000 N   0  0  0  0  0  0  0  0  0  0  0  0
   20.3022   -0.7270    0.0000 C   0  0  0  0  0  0  0  0  0  0  0  0
   21.2899    0.4019    0.0000 C   0  0  0  0  0  0  0  0  0  0  0  0
   22.7614    0.1109    0.0000 C   0  0  0  0  0  0  0  0  0  0  0  0
   23.7492    1.2397    0.0000 C   0  0  0  0  0  0  0  0  0  0  0  0
   24.0447   -0.6659    0.0000 C   0  0  0  0  0  0  0  0  0  0  0  0
   21.5854   -1.5037    0.0000 C   0  0  0  0  0  0  0  0  0  0  0  0
   21.5544   -3.0034    0.0000 O   0  0  0  0  0  0  0  0  0  0  0  0
   22.8997   -0.7808    0.0000 N   0  0  0  0  0  0  0  0  0  0  0  0
   24.1829   -1.5575    0.0000 C   0  0  0  0  0  0  0  0  0  0  0  0
   25.1231   -2.7263    0.0000 C   0  0  0  0  0  0  0  0  0  0  0  0
   24.5810   -4.1249    0.0000 C   0  0  0  0  0  0  0  0  0  0  0  0
   25.5212   -5.2937    0.0000 C   0  0  0  0  0  0  0  0  0  0  0  0
   23.5932   -5.2538    0.0000 C   0  0  0  0  0  0  0  0  0  0  0  0
   25.4972   -0.8346    0.0000 C   0  0  0  0  0  0  0  0  0  0  0  0
   26.8656   -1.4491    0.0000 O   0  0  0  0  0  0  0  0  0  0  0  0
   25.7108    0.6501    0.0000 O   0  0  0  0  0  0  0  0  0  0  0  0
  -29.2358   -2.8633    0.0000 H   0  0  0  0  0  0  0  0  0  0  0  0
  -29.6339   -0.2959    0.0000 H   0  0  0  0  0  0  0  0  0  0  0  0
  -27.2424   -2.7346    0.0000 H   0  0  0  0  0  0  0  0  0  0  0  0
  -25.7399   -1.5259    0.0000 H   0  0  0  0  0  0  0  0  0  0  0  0
  -28.1408    0.4547    0.0000 H   0  0  0  0  0  0  0  0  0  0  0  0
  -26.6382    1.6634    0.0000 H   0  0  0  0  0  0  0  0  0  0  0  0
  -25.3506    2.4781    0.0000 H   0  0  0  0  0  0  0  0  0  0  0  0
  -23.1937    0.5223    0.0000 H   0  0  0  0  0  0  0  0  0  0  0  0
  -24.7220    4.4873    0.0000 H   0  0  0  0  0  0  0  0  0  0  0  0
  -24.5600    3.0762    0.0000 H   0  0  0  0  0  0  0  0  0  0  0  0
  -21.7184    3.4019    0.0000 H   0  0  0  0  0  0  0  0  0  0  0  0
  -22.2995    7.2314    0.0000 H   0  0  0  0  0  0  0  0  0  0  0  0
  -24.0825    7.1594    0.0000 H   0  0  0  0  0  0  0  0  0  0  0  0
  -24.5349    5.4332    0.0000 H   0  0  0  0  0  0  0  0  0  0  0  0
  -21.1307    6.7784    0.0000 H   0  0  0  0  0  0  0  0  0  0  0  0
  -19.8620    5.5235    0.0000 H   0  0  0  0  0  0  0  0  0  0  0  0
  -20.9089    4.0158    0.0000 H   0  0  0  0  0  0  0  0  0  0  0  0
  -22.1951   -0.8177    0.0000 H   0  0  0  0  0  0  0  0  0  0  0  0
  -20.2780   -1.3785    0.0000 H   0  0  0  0  0  0  0  0  0  0  0  0
  -20.0119    2.9881    0.0000 H   0  0  0  0  0  0  0  0  0  0  0  0
  -20.7938    1.6187    0.0000 H   0  0  0  0  0  0  0  0  0  0  0  0
  -16.9082    2.4726    0.0000 H   0  0  0  0  0  0  0  0  0  0  0  0
  -17.9068    0.8229    0.0000 H   0  0  0  0  0  0  0  0  0  0  0  0
  -19.2238   -2.5525    0.0000 H   0  0  0  0  0  0  0  0  0  0  0  0
  -16.6583   -1.6344    0.0000 H   0  0  0  0  0  0  0  0  0  0  0  0
  -18.7303   -5.5605    0.0000 H   0  0  0  0  0  0  0  0  0  0  0  0
  -16.9050   -4.9386    0.0000 H   0  0  0  0  0  0  0  0  0  0  0  0
  -22.1190   -4.7087    0.0000 H   0  0  0  0  0  0  0  0  0  0  0  0
  -20.1637   -6.4196    0.0000 H   0  0  0  0  0  0  0  0  0  0  0  0
  -15.2249   -0.7753    0.0000 H   0  0  0  0  0  0  0  0  0  0  0  0
  -13.2386   -0.9865    0.0000 H   0  0  0  0  0  0  0  0  0  0  0  0
  -14.7996   -5.0136    0.0000 H   0  0  0  0  0  0  0  0  0  0  0  0
  -15.2448   -3.4416    0.0000 H   0  0  0  0  0  0  0  0  0  0  0  0
  -11.5884   -5.8303    0.0000 H   0  0  0  0  0  0  0  0  0  0  0  0
  -11.8838   -3.9247    0.0000 H   0  0  0  0  0  0  0  0  0  0  0  0
  -14.4015   -7.5810    0.0000 H   0  0  0  0  0  0  0  0  0  0  0  0
  -14.7820   -5.8376    0.0000 H   0  0  0  0  0  0  0  0  0  0  0  0
  -10.9912   -7.3911    0.0000 H   0  0  0  0  0  0  0  0  0  0  0  0
  -12.6175  -11.5869    0.0000 H   0  0  0  0  0  0  0  0  0  0  0  0
  -10.5932   -9.9585    0.0000 H   0  0  0  0  0  0  0  0  0  0  0  0
  -15.0400  -10.6480    0.0000 H   0  0  0  0  0  0  0  0  0  0  0  0
  -15.4381   -8.0806    0.0000 H   0  0  0  0  0  0  0  0  0  0  0  0
  -12.1855    0.3111    0.0000 H   0  0  0  0  0  0  0  0  0  0  0  0
  -10.2467    0.7920    0.0000 H   0  0  0  0  0  0  0  0  0  0  0  0
  -10.1616   -3.5818    0.0000 H   0  0  0  0  0  0  0  0  0  0  0  0
  -11.2922   -2.2012    0.0000 H   0  0  0  0  0  0  0  0  0  0  0  0
   -7.0393   -3.1953    0.0000 H   0  0  0  0  0  0  0  0  0  0  0  0
   -7.9687   -1.5057    0.0000 H   0  0  0  0  0  0  0  0  0  0  0  0
   -7.2897   -6.6804    0.0000 H   0  0  0  0  0  0  0  0  0  0  0  0
   -5.9444   -4.4577    0.0000 H   0  0  0  0  0  0  0  0  0  0  0  0
   -9.7860    2.2093    0.0000 H   0  0  0  0  0  0  0  0  0  0  0  0
   -6.6196    0.8979    0.0000 H   0  0  0  0  0  0  0  0  0  0  0  0
   -8.3506    4.9547    0.0000 H   0  0  0  0  0  0  0  0  0  0  0  0
   -6.7293    4.2094    0.0000 H   0  0  0  0  0  0  0  0  0  0  0  0
  -10.7422    2.3789    0.0000 H   0  0  0  0  0  0  0  0  0  0  0  0
   -9.5832    1.7578    0.0000 H   0  0  0  0  0  0  0  0  0  0  0  0
  -10.7731    5.8937    0.0000 H   0  0  0  0  0  0  0  0  0  0  0  0
   -9.2497    5.3032    0.0000 H   0  0  0  0  0  0  0  0  0  0  0  0
  -13.2626    3.4727    0.0000 H   0  0  0  0  0  0  0  0  0  0  0  0
  -11.6413    2.7274    0.0000 H   0  0  0  0  0  0  0  0  0  0  0  0
  -14.3708    5.1346    0.0000 H   0  0  0  0  0  0  0  0  0  0  0  0
  -13.3722    6.7842    0.0000 H   0  0  0  0  0  0  0  0  0  0  0  0
  -11.6721    6.2422    0.0000 H   0  0  0  0  0  0  0  0  0  0  0  0
   -5.2230   -0.0199    0.0000 H   0  0  0  0  0  0  0  0  0  0  0  0
   -3.2297    0.1089    0.0000 H   0  0  0  0  0  0  0  0  0  0  0  0
   -4.6225    4.1972    0.0000 H   0  0  0  0  0  0  0  0  0  0  0  0
   -5.1325    2.6450    0.0000 H   0  0  0  0  0  0  0  0  0  0  0  0
   -1.3020    4.7147    0.0000 H   0  0  0  0  0  0  0  0  0  0  0  0
   -1.7544    2.9885    0.0000 H   0  0  0  0  0  0  0  0  0  0  0  0
   -4.2540    6.6226    0.0000 H   0  0  0  0  0  0  0  0  0  0  0  0
   -4.5709    5.0198    0.0000 H   0  0  0  0  0  0  0  0  0  0  0  0
   -0.8763    7.4290    0.0000 H   0  0  0  0  0  0  0  0  0  0  0  0
   -1.1149    5.6606    0.0000 H   0  0  0  0  0  0  0  0  0  0  0  0
   -1.6865    9.2547    0.0000 H   0  0  0  0  0  0  0  0  0  0  0  0
   -3.6145    9.2947    0.0000 H   0  0  0  0  0  0  0  0  0  0  0  0
   -4.0669    7.5685    0.0000 H   0  0  0  0  0  0  0  0  0  0  0  0
   -2.2311   -1.2311    0.0000 H   0  0  0  0  0  0  0  0  0  0  0  0
   -0.3140   -1.7919    0.0000 H   0  0  0  0  0  0  0  0  0  0  0  0
   -0.2246    2.5263    0.0000 H   0  0  0  0  0  0  0  0  0  0  0  0
   -1.2347    1.2421    0.0000 H   0  0  0  0  0  0  0  0  0  0  0  0
    2.0572    0.4095    0.0000 H   0  0  0  0  0  0  0  0  0  0  0  0
    2.8209    4.2068    0.0000 H   0  0  0  0  0  0  0  0  0  0  0  0
    1.1208    4.7489    0.0000 H   0  0  0  0  0  0  0  0  0  0  0  0
    0.1053    3.2816    0.0000 H   0  0  0  0  0  0  0  0  0  0  0  0
    3.7643    3.3813    0.0000 H   0  0  0  0  0  0  0  0  0  0  0  0
    4.5518    1.9497    0.0000 H   0  0  0  0  0  0  0  0  0  0  0  0
    3.0247    0.5595    0.0000 H   0  0  0  0  0  0  0  0  0  0  0  0
    0.0877   -3.2270    0.0000 H   0  0  0  0  0  0  0  0  0  0  0  0
    3.3056   -2.0478    0.0000 H   0  0  0  0  0  0  0  0  0  0  0  0
    1.2337   -5.9739    0.0000 H   0  0  0  0  0  0  0  0  0  0  0  0
    3.0590   -5.3520    0.0000 H   0  0  0  0  0  0  0  0  0  0  0  0
   -0.9790   -3.5075    0.0000 H   0  0  0  0  0  0  0  0  0  0  0  0
    0.3090   -2.7843    0.0000 H   0  0  0  0  0  0  0  0  0  0  0  0
    4.5696   -1.2583    0.0000 H   0  0  0  0  0  0  0  0  0  0  0  0
    6.9781   -5.6193    0.0000 H   0  0  0  0  0  0  0  0  0  0  0  0
    5.9880   -4.5318    0.0000 H   0  0  0  0  0  0  0  0  0  0  0  0
    8.3400   -6.6957    0.0000 H   0  0  0  0  0  0  0  0  0  0  0  0
    7.2560   -5.9633    0.0000 H   0  0  0  0  0  0  0  0  0  0  0  0
   10.3202   -7.2983    0.0000 H   0  0  0  0  0  0  0  0  0  0  0  0
    8.8895   -6.9575    0.0000 H   0  0  0  0  0  0  0  0  0  0  0  0
   11.3984   -7.5734    0.0000 H   0  0  0  0  0  0  0  0  0  0  0  0
    4.3641   -4.3058    0.0000 H   0  0  0  0  0  0  0  0  0  0  0  0
    5.6159   -5.5866    0.0000 H   0  0  0  0  0  0  0  0  0  0  0  0
    6.8061   -5.2522    0.0000 H   0  0  0  0  0  0  0  0  0  0  0  0
    4.9963    0.3853    0.0000 H   0  0  0  0  0  0  0  0  0  0  0  0
    6.3123    2.7882    0.0000 H   0  0  0  0  0  0  0  0  0  0  0  0
    4.8446    2.7223    0.0000 H   0  0  0  0  0  0  0  0  0  0  0  0
    4.1247    0.7867    0.0000 H   0  0  0  0  0  0  0  0  0  0  0  0
    5.4808   -0.1246    0.0000 H   0  0  0  0  0  0  0  0  0  0  0  0
    8.5117    4.8319    0.0000 H   0  0  0  0  0  0  0  0  0  0  0  0
   11.2109    5.3012    0.0000 H   0  0  0  0  0  0  0  0  0  0  0  0
    8.2821    5.7637    0.0000 H   0  0  0  0  0  0  0  0  0  0  0  0
    8.4151    4.1352    0.0000 H   0  0  0  0  0  0  0  0  0  0  0  0
    9.5486    9.0201    0.0000 H   0  0  0  0  0  0  0  0  0  0  0  0
    7.6079    7.2928    0.0000 H   0  0  0  0  0  0  0  0  0  0  0  0
   14.1800    4.8559    0.0000 H   0  0  0  0  0  0  0  0  0  0  0  0
   16.2649    2.8584    0.0000 H   0  0  0  0  0  0  0  0  0  0  0  0
   14.5874    5.5728    0.0000 H   0  0  0  0  0  0  0  0  0  0  0  0
   13.5751    4.4970    0.0000 H   0  0  0  0  0  0  0  0  0  0  0  0
   17.9394    4.6656    0.0000 H   0  0  0  0  0  0  0  0  0  0  0  0
   16.8841    3.2266    0.0000 H   0  0  0  0  0  0  0  0  0  0  0  0
   16.4269    7.6136    0.0000 H   0  0  0  0  0  0  0  0  0  0  0  0
   15.2041    6.3141    0.0000 H   0  0  0  0  0  0  0  0  0  0  0  0
   19.2542    5.6972    0.0000 H   0  0  0  0  0  0  0  0  0  0  0  0
   20.0168   10.1321    0.0000 H   0  0  0  0  0  0  0  0  0  0  0  0
   20.9157    7.6945    0.0000 H   0  0  0  0  0  0  0  0  0  0  0  0
   17.4563   10.5724    0.0000 H   0  0  0  0  0  0  0  0  0  0  0  0
   15.7948    8.5751    0.0000 H   0  0  0  0  0  0  0  0  0  0  0  0
   17.6806    0.6147    0.0000 H   0  0  0  0  0  0  0  0  0  0  0  0
   17.5578   -2.7378    0.0000 H   0  0  0  0  0  0  0  0  0  0  0  0
   16.9435   -4.0741    0.0000 H   0  0  0  0  0  0  0  0  0  0  0  0
   16.7829   -4.4861    0.0000 H   0  0  0  0  0  0  0  0  0  0  0  0
   15.9715   -5.5124    0.0000 H   0  0  0  0  0  0  0  0  0  0  0  0
   15.5271   -5.9283    0.0000 H   0  0  0  0  0  0  0  0  0  0  0  0
   14.2668   -6.6864    0.0000 H   0  0  0  0  0  0  0  0  0  0  0  0
   13.3225   -7.2751    0.0000 H   0  0  0  0  0  0  0  0  0  0  0  0
   19.0370   -2.0307    0.0000 H   0  0  0  0  0  0  0  0  0  0  0  0
   18.2319   -3.6304    0.0000 H   0  0  0  0  0  0  0  0  0  0  0  0
   16.9963   -3.6722    0.0000 H   0  0  0  0  0  0  0  0  0  0  0  0
   19.1399   -2.9422    0.0000 H   0  0  0  0  0  0  0  0  0  0  0  0
   19.3620    0.4418    0.0000 H   0  0  0  0  0  0  0  0  0  0  0  0
   21.6575    1.8561    0.0000 H   0  0  0  0  0  0  0  0  0  0  0  0
   20.0067    1.1786    0.0000 H   0  0  0  0  0  0  0  0  0  0  0  0
   22.9396   -1.3785    0.0000 H   0  0  0  0  0  0  0  0  0  0  0  0
   25.2474    1.3134    0.0000 H   0  0  0  0  0  0  0  0  0  0  0  0
   24.2913    2.6383    0.0000 H   0  0  0  0  0  0  0  0  0  0  0  0
   22.5702    2.1671    0.0000 H   0  0  0  0  0  0  0  0  0  0  0  0
   24.3774   -2.1285    0.0000 H   0  0  0  0  0  0  0  0  0  0  0  0
   25.5227   -0.4101    0.0000 H   0  0  0  0  0  0  0  0  0  0  0  0
   24.7532    0.6562    0.0000 H   0  0  0  0  0  0  0  0  0  0  0  0
   23.2927    0.6668    0.0000 H   0  0  0  0  0  0  0  0  0  0  0  0
   23.0649   -2.5576    0.0000 H   0  0  0  0  0  0  0  0  0  0  0  0
   26.4915   -3.3408    0.0000 H   0  0  0  0  0  0  0  0  0  0  0  0
   26.3547   -1.8700    0.0000 H   0  0  0  0  0  0  0  0  0  0  0  0
   23.2127   -3.5104    0.0000 H   0  0  0  0  0  0  0  0  0  0  0  0
   25.1536   -6.7480    0.0000 H   0  0  0  0  0  0  0  0  0  0  0  0
   26.8044   -6.0704    0.0000 H   0  0  0  0  0  0  0  0  0  0  0  0
   26.6392   -4.2937    0.0000 H   0  0  0  0  0  0  0  0  0  0  0  0
   23.9003   -6.7220    0.0000 H   0  0  0  0  0  0  0  0  0  0  0  0
   22.2790   -5.9767    0.0000 H   0  0  0  0  0  0  0  0  0  0  0  0
   22.6531   -4.0850    0.0000 H   0  0  0  0  0  0  0  0  0  0  0  0
  1  2  1  0
  2  3  1  0
  3  4  1  0
  4  5  2  0
  4  6  1  0
  6  7  1  0
  7  8  1  0
  8  9  1  0
  9 10  1  0
  9 11  1  0
  7 12  1  0
 12 13  2  0
 12 14  1  0
 14 15  1  0
 15 16  1  0
 16 17  1  0
 17 18  1  0
 18 19  2  0
 18 20  1  0
 15 21  1  0
 21 22  2  0
 21 23  1  0
 23 24  1  0
 24 25  1  0
 25 26  1  0
 26 27  1  0
 26 28  2  0
 24 29  1  0
 29 30  2  0
 29 31  1  0
 31 32  1  0
 32 33  1  0
 33 34  1  0
 34 35  1  0
 35 36  1  0
 36 37  1  0
 37 38  2  3
 37 39  1  0
 32 40  1  0
 40 41  2  0
 40 42  1  0
 42 43  1  0
 43 44  1  0
 44 45  1  0
 45 46  1  0
 46 47  1  0
 46 48  2  0
 43 49  1  0
 49 50  2  0
 49 51  1  0
 51 52  1  0
 52 53  1  0
 53 54  1  0
 54 55  1  0
 55 56  1  0
 56 57  1  0
 52 58  1  0
 58 59  2  0
 58 60  1  0
 60 61  1  0
 61 62  1  0
 62 63  1  0
 63 64  1  0
 64 65  1  0
 65 66  1  0
 61 67  1  0
 67 68  2  0
 67 69  1  0
 69 70  1  0
 70 71  1  0
 71 72  1  0
 72 73  1  0
 72 74  1  0
 70 75  1  0
 75 76  2  0
 75 77  1  0
 77 78  1  0
 78 79  1  0
 79 80  1  0
 80 81  1  0
 81 82  2  0
 81 83  1  0
 78 84  1  0
 84 85  2  0
 84 86  1  0
 87 86  1  6
 87 88  1  0
 88 89  1  0
 89 90  1  0
 90 91  1  0
 87 92  1  0
 87 93  1  0
 93 94  2  0
 93 95  1  0
 95 96  1  0
 96 97  1  0
 96 98  1  0
 98 99  2  0
 98100  1  0
100101  1  0
101102  1  0
102103  1  0
103104  1  0
103105  2  0
101106  1  0
106107  2  0
106108  1  0
108109  1  0
109110  1  0
110111  1  0
111112  1  0
112113  1  0
113114  1  0
114115  2  3
114116  1  0
109117  1  0
117118  2  0
117119  1  0
119120  1  0
120121  1  0
121122  1  0
122123  1  0
123124  1  0
120125  1  0
120126  1  6
126127  2  0
126128  1  0
128129  1  0
129130  1  0
130131  1  0
131132  1  0
131133  1  0
129134  1  0
134135  2  0
134136  1  0
136137  1  0
137138  1  0
138139  1  0
139140  1  0
139141  1  0
137142  1  0
142143  2  0
142144  1  0
 91124  2  0
  1145  1  0
  1146  1  0
  2147  1  0
  2148  1  0
  3149  1  0
  3150  1  0
  6151  1  0
  7152  1  1
  8153  1  0
  8154  1  0
  9155  1  0
 10156  1  0
 10157  1  0
 10158  1  0
 11159  1  0
 11160  1  0
 11161  1  0
 14162  1  0
 15163  1  1
 16164  1  0
 16165  1  0
 17166  1  0
 17167  1  0
 23168  1  0
 24169  1  6
 25170  1  0
 25171  1  0
 27172  1  0
 27173  1  0
 31174  1  0
 32175  1  6
 33176  1  0
 33177  1  0
 34178  1  0
 34179  1  0
 35180  1  0
 35181  1  0
 36182  1  0
 38183  1  0
 38184  1  0
 39185  1  0
 39186  1  0
 42187  1  0
 43188  1  6
 44189  1  0
 44190  1  0
 45191  1  0
 45192  1  0
 47193  1  0
 47194  1  0
 51195  1  0
 52196  1  1
 53197  1  0
 53198  1  0
 54199  1  0
 54200  1  0
 55201  1  0
 55202  1  0
 56203  1  0
 56204  1  0
 57205  1  0
 57206  1  0
 57207  1  0
 60208  1  0
 61209  1  1
 62210  1  0
 62211  1  0
 63212  1  0
 63213  1  0
 64214  1  0
 64215  1  0
 65216  1  0
 65217  1  0
 66218  1  0
 66219  1  0
 66220  1  0
 69221  1  0
 70222  1  1
 71223  1  0
 71224  1  0
 72225  1  0
 73226  1  0
 73227  1  0
 73228  1  0
 74229  1  0
 74230  1  0
 74231  1  0
 77232  1  0
 78233  1  6
 79234  1  0
 79235  1  0
 80236  1  0
 80237  1  0
 86238  1  0
 88239  1  0
 88240  1  0
 89241  1  0
 89242  1  0
 90243  1  0
 90244  1  0
 91245  1  0
 92246  1  0
 92247  1  0
 92248  1  0
 95249  1  0
 96250  1  1
 97251  1  0
 97252  1  0
 97253  1  0
100254  1  0
101255  1  1
102256  1  0
102257  1  0
104258  1  0
104259  1  0
108260  1  0
109261  1  1
110262  1  0
110263  1  0
111264  1  0
111265  1  0
112266  1  0
112267  1  0
113268  1  0
115269  1  0
115270  1  0
116271  1  0
116272  1  0
119273  1  0
121274  1  0
121275  1  0
122276  1  0
122277  1  0
123278  1  0
123279  1  0
124280  1  0
125281  1  0
125282  1  0
125283  1  0
128284  1  0
129285  1  1
130286  1  0
130287  1  0
131288  1  0
132289  1  0
132290  1  0
132291  1  0
133292  1  0
133293  1  0
133294  1  0
136295  1  0
137296  1  6
138297  1  0
138298  1  0
139299  1  0
140300  1  0
140301  1  0
140302  1  0
141303  1  0
141304  1  0
141305  1  0
M  CHG  7  20  -1  38   1  57   1  66   1  83  -1 115   1 144  -1
M  END
