
     RDKit          2D

297303  0  0  0  0  0  0  0  0999 V2000
   28.3028   -0.7581    0.0000 C   0  0  0  0  0  0  0  0  0  0  0  0
   29.6038   -0.0115    0.0000 N   0  0  0  0  0  0  0  0  0  0  0  0
   30.9009   -0.7649    0.0000 C   0  0  0  0  0  0  0  0  0  0  0  0
   30.8970   -2.2649    0.0000 C   0  0  0  0  0  0  0  0  0  0  0  0
   32.1941   -3.0183    0.0000 C   0  0  0  0  0  0  0  0  0  0  0  0
   33.4951   -2.2717    0.0000 C   0  0  0  0  0  0  0  0  0  0  0  0
   33.4990   -0.7717    0.0000 C   0  0  0  0  0  0  0  0  0  0  0  0
   32.2019   -0.0183    0.0000 C   0  0  0  0  0  0  0  0  0  0  0  0
   34.9268   -0.3119    0.0000 C   0  0  0  0  0  0  0  0  0  0  0  0
   35.8053   -1.5277    0.0000 O   0  0  0  0  0  0  0  0  0  0  0  0
   34.9204   -2.7389    0.0000 C   0  0  0  0  0  0  0  0  0  0  0  0
   35.3803   -4.1667    0.0000 O   0  0  0  0  0  0  0  0  0  0  0  0
   36.3948   -0.0038    0.0000 C   0  0  0  0  0  0  0  0  0  0  0  0
   36.8620    1.4216    0.0000 C   0  0  0  0  0  0  0  0  0  0  0  0
   38.3301    1.7296    0.0000 C   0  0  0  0  0  0  0  0  0  0  0  0
   39.3309    0.6123    0.0000 C   0  0  0  0  0  0  0  0  0  0  0  0
   38.8636   -0.8131    0.0000 C   0  0  0  0  0  0  0  0  0  0  0  0
   37.3956   -1.1211    0.0000 C   0  0  0  0  0  0  0  0  0  0  0  0
   40.7989    0.9203    0.0000 O   0  0  0  0  0  0  0  0  0  0  0  0
   35.8613    2.5389    0.0000 O   0  0  0  0  0  0  0  0  0  0  0  0
   34.3932    2.2308    0.0000 C   0  0  0  0  0  0  0  0  0  0  0  0
   33.9260    0.8055    0.0000 C   0  0  0  0  0  0  0  0  0  0  0  0
   32.6760    1.1626    0.0000 C   0  0  0  0  0  0  0  0  0  0  0  0
   32.1422    1.7585    0.0000 C   0  0  0  0  0  0  0  0  0  0  0  0
   32.3914    2.5187    0.0000 C   0  0  0  0  0  0  0  0  0  0  0  0
   33.1744    2.6830    0.0000 C   0  0  0  0  0  0  0  0  0  0  0  0
   30.9236    4.1575    0.0000 O   0  0  0  0  0  0  0  0  0  0  0  0
   28.2989   -2.2581    0.0000 S   0  0  0  0  0  0  0  0  0  0  0  0
   27.0058   -0.0047    0.0000 N   0  0  0  0  0  0  0  0  0  0  0  0
   25.7048   -0.7514    0.0000 C   0  0  0  0  0  0  0  0  0  0  0  0
   24.4077    0.0020    0.0000 C   0  0  0  0  0  0  0  0  0  0  0  0
   23.1067   -0.7446    0.0000 C   0  0  0  0  0  0  0  0  0  0  0  0
   23.1028   -2.2446    0.0000 O   0  0  0  0  0  0  0  0  0  0  0  0
   21.8096    0.0088    0.0000 N   0  0  0  0  0  0  0  0  0  0  0  0
   20.5086   -0.7378    0.0000 C   0  0  0  0  0  0  0  0  0  0  0  0
   19.5415   -1.8844    0.0000 C   0  0  0  0  0  0  0  0  0  0  0  0
   18.0649   -1.6200    0.0000 C   0  0  0  0  0  0  0  0  0  0  0  0
   17.0978   -2.7666    0.0000 N   0  0  0  0  0  0  0  0  0  0  0  0
   17.6209   -0.9580    0.0000 O   0  0  0  0  0  0  0  0  0  0  0  0
   19.2116    0.0156    0.0000 C   0  0  0  0  0  0  0  0  0  0  0  0
   19.2155    1.5156    0.0000 O   0  0  0  0  0  0  0  0  0  0  0  0
   17.9106   -0.7310    0.0000 N   0  0  0  0  0  0  0  0  0  0  0  0
   16.6135    0.0223    0.0000 C   0  0  0  0  0  0  0  0  0  0  0  0
   15.6523    1.1739    0.0000 C   0  0  0  0  0  0  0  0  0  0  0  0
   14.1744    0.9173    0.0000 C   0  0  0  0  0  0  0  0  0  0  0  0
   13.2132    2.0689    0.0000 C   0  0  0  0  0  0  0  0  0  0  0  0
   11.7151    1.9943    0.0000 O   0  0  0  0  0  0  0  0  0  0  0  0
   13.7300    3.4771    0.0000 O   0  0  0  0  0  0  0  0  0  0  0  0
   15.3125   -0.7243    0.0000 C   0  0  0  0  0  0  0  0  0  0  0  0
   15.1258   -2.2126    0.0000 O   0  0  0  0  0  0  0  0  0  0  0  0
   14.0154    0.0291    0.0000 N   0  0  0  0  0  0  0  0  0  0  0  0
   12.7144   -0.7175    0.0000 C   0  0  0  0  0  0  0  0  0  0  0  0
   11.7473   -1.8640    0.0000 C   0  0  0  0  0  0  0  0  0  0  0  0
   10.2707   -1.5997    0.0000 C   0  0  0  0  0  0  0  0  0  0  0  0
    9.3036   -2.7463    0.0000 C   0  0  0  0  0  0  0  0  0  0  0  0
    8.9737   -0.8463    0.0000 C   0  0  0  0  0  0  0  0  0  0  0  0
   11.4174    0.0359    0.0000 C   0  0  0  0  0  0  0  0  0  0  0  0
   11.2384    1.5252    0.0000 O   0  0  0  0  0  0  0  0  0  0  0  0
   10.1164   -0.7107    0.0000 N   0  0  0  0  0  0  0  0  0  0  0  0
    8.8193    0.0427    0.0000 C   0  0  0  0  0  0  0  0  0  0  0  0
    7.8581    1.1942    0.0000 C   0  0  0  0  0  0  0  0  0  0  0  0
    8.3748    2.6024    0.0000 C   0  0  0  0  0  0  0  0  0  0  0  0
    7.4136    3.7540    0.0000 C   0  0  0  0  0  0  0  0  0  0  0  0
    7.9303    5.1622    0.0000 C   0  0  0  0  0  0  0  0  0  0  0  0
    6.9692    6.3138    0.0000 N   0  0  0  0  0  0  0  0  0  0  0  0
    7.5183   -0.7040    0.0000 C   0  0  0  0  0  0  0  0  0  0  0  0
    7.1516   -2.1584    0.0000 O   0  0  0  0  0  0  0  0  0  0  0  0
    6.2212    0.0494    0.0000 N   0  0  0  0  0  0  0  0  0  0  0  0
    4.9202   -0.6972    0.0000 C   0  0  0  0  0  0  0  0  0  0  0  0
    3.9531   -1.8437    0.0000 C   0  0  0  0  0  0  0  0  0  0  0  0
    2.4765   -1.5794    0.0000 C   0  0  0  0  0  0  0  0  0  0  0  0
    1.5094   -2.7260    0.0000 C   0  0  0  0  0  0  0  0  0  0  0  0
    0.0328   -2.4616    0.0000 N   0  0  0  0  0  0  0  0  0  0  0  0
   -0.9343   -3.6082    0.0000 C   0  0  0  0  0  0  0  0  0  0  0  0
   -2.3676   -3.1659    0.0000 N   0  0  0  0  0  0  0  0  0  0  0  0
   -0.4250   -5.0191    0.0000 N   0  0  0  0  0  0  0  0  0  0  0  0
    3.6232    0.0562    0.0000 C   0  0  0  0  0  0  0  0  0  0  0  0
    3.6271    1.5562    0.0000 O   0  0  0  0  0  0  0  0  0  0  0  0
    2.3222   -0.6904    0.0000 N   0  0  0  0  0  0  0  0  0  0  0  0
    1.0251    0.0630    0.0000 C   0  0  0  0  0  0  0  0  0  0  0  0
    0.0639    1.2145    0.0000 C   0  0  0  0  0  0  0  0  0  0  0  0
    0.5806    2.6227    0.0000 O   0  0  0  0  0  0  0  0  0  0  0  0
   -0.2759   -0.6836    0.0000 C   0  0  0  0  0  0  0  0  0  0  0  0
   -0.6426   -2.1381    0.0000 O   0  0  0  0  0  0  0  0  0  0  0  0
   -1.5730    0.0697    0.0000 N   0  0  0  0  0  0  0  0  0  0  0  0
   -2.8740   -0.6769    0.0000 C   0  0  0  0  0  0  0  0  0  0  0  0
   -3.8411   -1.8234    0.0000 C   0  0  0  0  0  0  0  0  0  0  0  0
   -5.3177   -1.5591    0.0000 C   0  0  0  0  0  0  0  0  0  0  0  0
   -5.8270   -0.1482    0.0000 C   0  0  0  0  0  0  0  0  0  0  0  0
   -7.3035    0.1161    0.0000 C   0  0  0  0  0  0  0  0  0  0  0  0
   -8.2707   -1.0305    0.0000 C   0  0  0  0  0  0  0  0  0  0  0  0
   -7.7614   -2.4413    0.0000 C   0  0  0  0  0  0  0  0  0  0  0  0
   -6.2848   -2.7057    0.0000 C   0  0  0  0  0  0  0  0  0  0  0  0
   -4.1710    0.0765    0.0000 C   0  0  0  0  0  0  0  0  0  0  0  0
   -3.8043    1.5310    0.0000 O   0  0  0  0  0  0  0  0  0  0  0  0
   -5.4720   -0.6701    0.0000 N   0  0  0  0  0  0  0  0  0  0  0  0
   -6.7691    0.0833    0.0000 C   0  0  0  0  0  0  0  0  0  0  0  0
   -7.7303    1.2349    0.0000 C   0  0  0  0  0  0  0  0  0  0  0  0
   -7.2136    2.6431    0.0000 C   0  0  0  0  0  0  0  0  0  0  0  0
   -5.7357    2.8997    0.0000 C   0  0  0  0  0  0  0  0  0  0  0  0
   -5.2190    4.3079    0.0000 C   0  0  0  0  0  0  0  0  0  0  0  0
   -6.1802    5.4594    0.0000 C   0  0  0  0  0  0  0  0  0  0  0  0
   -7.6581    5.2028    0.0000 C   0  0  0  0  0  0  0  0  0  0  0  0
   -8.1748    3.7946    0.0000 C   0  0  0  0  0  0  0  0  0  0  0  0
   -8.0701   -0.6633    0.0000 C   0  0  0  0  0  0  0  0  0  0  0  0
   -8.4368   -2.1178    0.0000 O   0  0  0  0  0  0  0  0  0  0  0  0
   -9.3672    0.0900    0.0000 N   0  0  0  0  0  0  0  0  0  0  0  0
  -10.6682   -0.6566    0.0000 C   0  0  0  0  0  0  0  0  0  0  0  0
  -11.6353   -1.8031    0.0000 C   0  0  0  0  0  0  0  0  0  0  0  0
  -11.9652    0.0968    0.0000 C   0  0  0  0  0  0  0  0  0  0  0  0
  -11.9613    1.5968    0.0000 O   0  0  0  0  0  0  0  0  0  0  0  0
  -13.2662   -0.6498    0.0000 N   0  0  0  0  0  0  0  0  0  0  0  0
  -14.5633    0.1036    0.0000 C   0  0  0  0  0  0  0  0  0  0  0  0
  -15.5245    1.2552    0.0000 C   0  0  0  0  0  0  0  0  0  0  0  0
  -15.0078    2.6634    0.0000 C   0  0  0  0  0  0  0  0  0  0  0  0
  -15.9690    3.8149    0.0000 C   0  0  0  0  0  0  0  0  0  0  0  0
  -14.0406    3.8099    0.0000 C   0  0  0  0  0  0  0  0  0  0  0  0
  -15.8643   -0.6430    0.0000 C   0  0  0  0  0  0  0  0  0  0  0  0
  -15.8682   -2.1430    0.0000 O   0  0  0  0  0  0  0  0  0  0  0  0
  -17.1614    0.1104    0.0000 N   0  0  0  0  0  0  0  0  0  0  0  0
  -18.4624   -0.6363    0.0000 C   0  0  0  0  0  0  0  0  0  0  0  0
  -19.4295   -1.7828    0.0000 C   0  0  0  0  0  0  0  0  0  0  0  0
  -20.9061   -1.5185    0.0000 C   0  0  0  0  0  0  0  0  0  0  0  0
  -21.8732   -2.6650    0.0000 C   0  0  0  0  0  0  0  0  0  0  0  0
  -23.3498   -2.4007    0.0000 N   0  0  0  0  0  0  0  0  0  0  0  0
  -24.3169   -3.5473    0.0000 C   0  0  0  0  0  0  0  0  0  0  0  0
  -25.7502   -3.1049    0.0000 N   0  0  0  0  0  0  0  0  0  0  0  0
  -23.8076   -4.9581    0.0000 N   0  0  0  0  0  0  0  0  0  0  0  0
  -19.7594    0.1171    0.0000 C   0  0  0  0  0  0  0  0  0  0  0  0
  -19.7555    1.6171    0.0000 O   0  0  0  0  0  0  0  0  0  0  0  0
  -21.0604   -0.6295    0.0000 N   0  0  0  0  0  0  0  0  0  0  0  0
  -22.3575    0.1239    0.0000 C   0  0  0  0  0  0  0  0  0  0  0  0
  -23.3187    1.2755    0.0000 C   0  0  0  0  0  0  0  0  0  0  0  0
  -22.8020    2.6837    0.0000 C   0  0  0  0  0  0  0  0  0  0  0  0
  -23.7632    3.8353    0.0000 O   0  0  0  0  0  0  0  0  0  0  0  0
  -21.3241    2.9403    0.0000 O   0  0  0  0  0  0  0  0  0  0  0  0
  -23.6585   -0.6227    0.0000 C   0  0  0  0  0  0  0  0  0  0  0  0
  -24.0253   -2.0772    0.0000 O   0  0  0  0  0  0  0  0  0  0  0  0
  -24.9556    0.1307    0.0000 N   0  0  0  0  0  0  0  0  0  0  0  0
  -26.2566   -0.6159    0.0000 C   0  0  0  0  0  0  0  0  0  0  0  0
  -27.2237   -1.7625    0.0000 C   0  0  0  0  0  0  0  0  0  0  0  0
  -28.7003   -1.4982    0.0000 C   0  0  0  0  0  0  0  0  0  0  0  0
  -29.6674   -2.6447    0.0000 C   0  0  0  0  0  0  0  0  0  0  0  0
  -31.1652   -2.5624    0.0000 N   0  0  0  0  0  0  0  0  0  0  0  0
  -29.1581   -4.0556    0.0000 O   0  0  0  0  0  0  0  0  0  0  0  0
  -27.5536    0.1374    0.0000 C   0  0  0  0  0  0  0  0  0  0  0  0
  -27.5497    1.6374    0.0000 O   0  0  0  0  0  0  0  0  0  0  0  0
  -28.8546   -0.6092    0.0000 N   0  0  0  0  0  0  0  0  0  0  0  0
  -30.1517    0.1442    0.0000 C   0  0  0  0  0  0  0  0  0  0  0  0
  -31.1129    1.2958    0.0000 C   0  0  0  0  0  0  0  0  0  0  0  0
  -30.4284    2.6305    0.0000 C   0  0  0  0  0  0  0  0  0  0  0  0
  -32.4100    2.0492    0.0000 C   0  0  0  0  0  0  0  0  0  0  0  0
  -32.4061    3.5492    0.0000 C   0  0  0  0  0  0  0  0  0  0  0  0
  -31.4527   -0.6024    0.0000 C   0  0  0  0  0  0  0  0  0  0  0  0
  -32.8935   -0.1853    0.0000 O   0  0  0  0  0  0  0  0  0  0  0  0
  -31.6394   -2.0907    0.0000 O   0  0  0  0  0  0  0  0  0  0  0  0
   29.4249    1.4778    0.0000 H   0  0  0  0  0  0  0  0  0  0  0  0
   29.5960   -3.0115    0.0000 H   0  0  0  0  0  0  0  0  0  0  0  0
   32.1902   -4.5183    0.0000 H   0  0  0  0  0  0  0  0  0  0  0  0
   31.8427    1.4381    0.0000 H   0  0  0  0  0  0  0  0  0  0  0  0
   38.7973    3.1550    0.0000 H   0  0  0  0  0  0  0  0  0  0  0  0
   39.8644   -1.9304    0.0000 H   0  0  0  0  0  0  0  0  0  0  0  0
   36.9283   -2.5465    0.0000 H   0  0  0  0  0  0  0  0  0  0  0  0
   41.7997   -0.1970    0.0000 H   0  0  0  0  0  0  0  0  0  0  0  0
   31.9907   -0.9279    0.0000 H   0  0  0  0  0  0  0  0  0  0  0  0
   29.9625    1.4880    0.0000 H   0  0  0  0  0  0  0  0  0  0  0  0
   33.8597    4.7735    0.0000 H   0  0  0  0  0  0  0  0  0  0  0  0
   31.3909    5.5828    0.0000 H   0  0  0  0  0  0  0  0  0  0  0  0
   27.0097    1.4953    0.0000 H   0  0  0  0  0  0  0  0  0  0  0  0
   24.7376   -1.8979    0.0000 H   0  0  0  0  0  0  0  0  0  0  0  0
   26.6660   -1.9029    0.0000 H   0  0  0  0  0  0  0  0  0  0  0  0
   23.4465    1.1536    0.0000 H   0  0  0  0  0  0  0  0  0  0  0  0
   25.3749    1.1486    0.0000 H   0  0  0  0  0  0  0  0  0  0  0  0
   21.8135    1.5088    0.0000 H   0  0  0  0  0  0  0  0  0  0  0  0
   21.4698   -1.8894    0.0000 H   0  0  0  0  0  0  0  0  0  0  0  0
   19.0248   -3.2926    0.0000 H   0  0  0  0  0  0  0  0  0  0  0  0
   20.8386   -2.6377    0.0000 H   0  0  0  0  0  0  0  0  0  0  0  0
   15.6000   -2.6842    0.0000 H   0  0  0  0  0  0  0  0  0  0  0  0
   17.6071   -4.1775    0.0000 H   0  0  0  0  0  0  0  0  0  0  0  0
   17.5438   -2.1855    0.0000 H   0  0  0  0  0  0  0  0  0  0  0  0
   17.5807    1.1689    0.0000 H   0  0  0  0  0  0  0  0  0  0  0  0
   15.1430    2.5848    0.0000 H   0  0  0  0  0  0  0  0  0  0  0  0
   16.9533    1.9205    0.0000 H   0  0  0  0  0  0  0  0  0  0  0  0
   12.8734    0.1707    0.0000 H   0  0  0  0  0  0  0  0  0  0  0  0
   13.9616   -0.5675    0.0000 H   0  0  0  0  0  0  0  0  0  0  0  0
   13.6563    1.4855    0.0000 H   0  0  0  0  0  0  0  0  0  0  0  0
   13.6756   -1.8691    0.0000 H   0  0  0  0  0  0  0  0  0  0  0  0
   11.4061   -3.3247    0.0000 H   0  0  0  0  0  0  0  0  0  0  0  0
   13.0444   -2.6174    0.0000 H   0  0  0  0  0  0  0  0  0  0  0  0
   10.0657   -0.1138    0.0000 H   0  0  0  0  0  0  0  0  0  0  0  0
    7.8070   -2.8471    0.0000 H   0  0  0  0  0  0  0  0  0  0  0  0
    8.7869   -4.1545    0.0000 H   0  0  0  0  0  0  0  0  0  0  0  0
   10.4991   -3.6522    0.0000 H   0  0  0  0  0  0  0  0  0  0  0  0
    7.6727   -1.5930    0.0000 H   0  0  0  0  0  0  0  0  0  0  0  0
    8.0125    0.3052    0.0000 H   0  0  0  0  0  0  0  0  0  0  0  0
   10.0734    0.1738    0.0000 H   0  0  0  0  0  0  0  0  0  0  0  0
    9.7496   -2.1652    0.0000 H   0  0  0  0  0  0  0  0  0  0  0  0
    9.7865    1.1892    0.0000 H   0  0  0  0  0  0  0  0  0  0  0  0
    6.5610    1.9476    0.0000 H   0  0  0  0  0  0  0  0  0  0  0  0
    6.6422    0.3158    0.0000 H   0  0  0  0  0  0  0  0  0  0  0  0
    9.4745    3.6225    0.0000 H   0  0  0  0  0  0  0  0  0  0  0  0
    9.7541    2.0128    0.0000 H   0  0  0  0  0  0  0  0  0  0  0  0
    6.0344    4.3437    0.0000 H   0  0  0  0  0  0  0  0  0  0  0  0
    6.3139    2.7339    0.0000 H   0  0  0  0  0  0  0  0  0  0  0  0
    8.8975    6.3087    0.0000 H   0  0  0  0  0  0  0  0  0  0  0  0
    9.3096    4.5725    0.0000 H   0  0  0  0  0  0  0  0  0  0  0  0
    7.4859    7.7220    0.0000 H   0  0  0  0  0  0  0  0  0  0  0  0
    5.6721    7.0672    0.0000 H   0  0  0  0  0  0  0  0  0  0  0  0
    5.8694    5.2937    0.0000 H   0  0  0  0  0  0  0  0  0  0  0  0
    6.0423    1.5387    0.0000 H   0  0  0  0  0  0  0  0  0  0  0  0
    5.8814   -1.8488    0.0000 H   0  0  0  0  0  0  0  0  0  0  0  0
    3.6119   -3.3044    0.0000 H   0  0  0  0  0  0  0  0  0  0  0  0
    5.2502   -2.5971    0.0000 H   0  0  0  0  0  0  0  0  0  0  0  0
    1.1795   -0.8260    0.0000 H   0  0  0  0  0  0  0  0  0  0  0  0
    2.2715   -0.0935    0.0000 H   0  0  0  0  0  0  0  0  0  0  0  0
    0.9927   -4.1342    0.0000 H   0  0  0  0  0  0  0  0  0  0  0  0
    2.7049   -3.6318    0.0000 H   0  0  0  0  0  0  0  0  0  0  0  0
   -0.8028   -1.2160    0.0000 H   0  0  0  0  0  0  0  0  0  0  0  0
   -3.3780   -4.4904    0.0000 H   0  0  0  0  0  0  0  0  0  0  0  0
   -2.7658   -1.8748    0.0000 H   0  0  0  0  0  0  0  0  0  0  0  0
   -1.3921   -6.1656    0.0000 H   0  0  0  0  0  0  0  0  0  0  0  0
    1.0516   -5.2834    0.0000 H   0  0  0  0  0  0  0  0  0  0  0  0
    1.9554   -2.1449    0.0000 H   0  0  0  0  0  0  0  0  0  0  0  0
    1.9923    1.2095    0.0000 H   0  0  0  0  0  0  0  0  0  0  0  0
   -1.1317    2.1204    0.0000 H   0  0  0  0  0  0  0  0  0  0  0  0
   -1.1520    0.3361    0.0000 H   0  0  0  0  0  0  0  0  0  0  0  0
   -0.3806    3.7743    0.0000 H   0  0  0  0  0  0  0  0  0  0  0  0
   -1.7519    1.5590    0.0000 H   0  0  0  0  0  0  0  0  0  0  0  0
   -1.9128   -1.8285    0.0000 H   0  0  0  0  0  0  0  0  0  0  0  0
   -4.3578   -3.2316    0.0000 H   0  0  0  0  0  0  0  0  0  0  0  0
   -2.4003   -2.2406    0.0000 H   0  0  0  0  0  0  0  0  0  0  0  0
   -4.8598    0.9983    0.0000 H   0  0  0  0  0  0  0  0  0  0  0  0
   -8.1392    1.3618    0.0000 H   0  0  0  0  0  0  0  0  0  0  0  0
   -9.7472   -0.7661    0.0000 H   0  0  0  0  0  0  0  0  0  0  0  0
   -8.7285   -3.5879    0.0000 H   0  0  0  0  0  0  0  0  0  0  0  0
   -5.7755   -4.1165    0.0000 H   0  0  0  0  0  0  0  0  0  0  0  0
   -5.8388   -2.1246    0.0000 H   0  0  0  0  0  0  0  0  0  0  0  0
   -5.8019    1.2298    0.0000 H   0  0  0  0  0  0  0  0  0  0  0  0
   -8.9259    2.1407    0.0000 H   0  0  0  0  0  0  0  0  0  0  0  0
   -8.9462    0.3564    0.0000 H   0  0  0  0  0  0  0  0  0  0  0  0
   -4.5244    2.0149    0.0000 H   0  0  0  0  0  0  0  0  0  0  0  0
   -3.7411    4.5645    0.0000 H   0  0  0  0  0  0  0  0  0  0  0  0
   -5.6635    6.8676    0.0000 H   0  0  0  0  0  0  0  0  0  0  0  0
   -8.6193    6.3544    0.0000 H   0  0  0  0  0  0  0  0  0  0  0  0
   -9.6527    3.5380    0.0000 H   0  0  0  0  0  0  0  0  0  0  0  0
   -9.5461    1.5793    0.0000 H   0  0  0  0  0  0  0  0  0  0  0  0
   -9.7070   -1.8081    0.0000 H   0  0  0  0  0  0  0  0  0  0  0  0
  -13.1085   -2.0856    0.0000 H   0  0  0  0  0  0  0  0  0  0  0  0
  -12.1520   -3.2113    0.0000 H   0  0  0  0  0  0  0  0  0  0  0  0
  -10.3383   -2.5565    0.0000 H   0  0  0  0  0  0  0  0  0  0  0  0
  -13.4530   -2.1381    0.0000 H   0  0  0  0  0  0  0  0  0  0  0  0
  -13.4636    1.1237    0.0000 H   0  0  0  0  0  0  0  0  0  0  0  0
  -16.8216    2.0085    0.0000 H   0  0  0  0  0  0  0  0  0  0  0  0
  -16.7404    0.3767    0.0000 H   0  0  0  0  0  0  0  0  0  0  0  0
  -13.6285    2.0737    0.0000 H   0  0  0  0  0  0  0  0  0  0  0  0
  -15.6278    5.2756    0.0000 H   0  0  0  0  0  0  0  0  0  0  0  0
  -17.2661    4.5683    0.0000 H   0  0  0  0  0  0  0  0  0  0  0  0
  -17.0687    2.7948    0.0000 H   0  0  0  0  0  0  0  0  0  0  0  0
  -14.3742    5.2724    0.0000 H   0  0  0  0  0  0  0  0  0  0  0  0
  -12.7396    4.5565    0.0000 H   0  0  0  0  0  0  0  0  0  0  0  0
  -13.0794    2.6583    0.0000 H   0  0  0  0  0  0  0  0  0  0  0  0
  -17.3403    1.5996    0.0000 H   0  0  0  0  0  0  0  0  0  0  0  0
  -17.5012   -1.7878    0.0000 H   0  0  0  0  0  0  0  0  0  0  0  0
  -19.7707   -3.2435    0.0000 H   0  0  0  0  0  0  0  0  0  0  0  0
  -18.1325   -2.5362    0.0000 H   0  0  0  0  0  0  0  0  0  0  0  0
  -22.2031   -0.7651    0.0000 H   0  0  0  0  0  0  0  0  0  0  0  0
  -21.1111   -0.0326    0.0000 H   0  0  0  0  0  0  0  0  0  0  0  0
  -22.3899   -4.0732    0.0000 H   0  0  0  0  0  0  0  0  0  0  0  0
  -20.6777   -3.5709    0.0000 H   0  0  0  0  0  0  0  0  0  0  0  0
  -24.1854   -1.1550    0.0000 H   0  0  0  0  0  0  0  0  0  0  0  0
  -26.7606   -4.4295    0.0000 H   0  0  0  0  0  0  0  0  0  0  0  0
  -26.1484   -1.8139    0.0000 H   0  0  0  0  0  0  0  0  0  0  0  0
  -24.7748   -6.1047    0.0000 H   0  0  0  0  0  0  0  0  0  0  0  0
  -22.3311   -5.2225    0.0000 H   0  0  0  0  0  0  0  0  0  0  0  0
  -21.4272   -2.0840    0.0000 H   0  0  0  0  0  0  0  0  0  0  0  0
  -21.3903    1.2705    0.0000 H   0  0  0  0  0  0  0  0  0  0  0  0
  -24.5143    2.1814    0.0000 H   0  0  0  0  0  0  0  0  0  0  0  0
  -24.5346    0.3970    0.0000 H   0  0  0  0  0  0  0  0  0  0  0  0
  -25.1345    1.6200    0.0000 H   0  0  0  0  0  0  0  0  0  0  0  0
  -25.2954   -1.7675    0.0000 H   0  0  0  0  0  0  0  0  0  0  0  0
  -27.7404   -3.1707    0.0000 H   0  0  0  0  0  0  0  0  0  0  0  0
  -25.7829   -2.1796    0.0000 H   0  0  0  0  0  0  0  0  0  0  0  0
  -29.9973   -0.7448    0.0000 H   0  0  0  0  0  0  0  0  0  0  0  0
  -28.9053   -0.0122    0.0000 H   0  0  0  0  0  0  0  0  0  0  0  0
  -32.1111   -3.5269    0.0000 H   0  0  0  0  0  0  0  0  0  0  0  0
  -32.0242   -1.1350    0.0000 H   0  0  0  0  0  0  0  0  0  0  0  0
  -29.2214   -2.0636    0.0000 H   0  0  0  0  0  0  0  0  0  0  0  0
  -29.0520    1.1643    0.0000 H   0  0  0  0  0  0  0  0  0  0  0  0
  -32.2126    0.2757    0.0000 H   0  0  0  0  0  0  0  0  0  0  0  0
  -31.3996    3.9840    0.0000 H   0  0  0  0  0  0  0  0  0  0  0  0
  -29.6290    3.8505    0.0000 H   0  0  0  0  0  0  0  0  0  0  0  0
  -29.2170    2.1143    0.0000 H   0  0  0  0  0  0  0  0  0  0  0  0
  -33.8865    2.3135    0.0000 H   0  0  0  0  0  0  0  0  0  0  0  0
  -33.0945    0.7145    0.0000 H   0  0  0  0  0  0  0  0  0  0  0  0
  -33.7031    4.3026    0.0000 H   0  0  0  0  0  0  0  0  0  0  0  0
  -31.8894    4.9574    0.0000 H   0  0  0  0  0  0  0  0  0  0  0  0
  -30.9095    3.6500    0.0000 H   0  0  0  0  0  0  0  0  0  0  0  0
  1  2  1  0
  2  3  1  0
  3  4  2  0
  4  5  1  0
  5  6  2  0
  6  7  1  0
  7  8  2  0
  7  9  1  0
  9 10  1  0
 10 11  1  0
 11 12  2  0
  9 13  1  0
 13 14  1  0
 14 15  2  0
 15 16  1  0
 16 17  2  0
 17 18  1  0
 16 19  1  0
 14 20  1  0
 20 21  1  0
 21 22  2  0
 22 23  1  0
 23 24  2  0
 24 25  1  0
 25 26  2  0
 25 27  1  0
  1 28  2  0
  1 29  1  0
 29 30  1  0
 30 31  1  0
 31 32  1  0
 32 33  2  0
 32 34  1  0
 34 35  1  0
 35 36  1  0
 36 37  1  0
 37 38  1  0
 37 39  2  0
 35 40  1  0
 40 41  2  0
 40 42  1  0
 42 43  1  0
 43 44  1  0
 44 45  1  0
 45 46  1  0
 46 47  2  0
 46 48  1  0
 43 49  1  0
 49 50  2  0
 49 51  1  0
 51 52  1  0
 52 53  1  0
 53 54  1  0
 54 55  1  0
 54 56  1  0
 52 57  1  0
 57 58  2  0
 57 59  1  0
 59 60  1  0
 60 61  1  0
 61 62  1  0
 62 63  1  0
 63 64  1  0
 64 65  1  0
 60 66  1  0
 66 67  2  0
 66 68  1  0
 68 69  1  0
 69 70  1  0
 70 71  1  0
 71 72  1  0
 72 73  1  0
 73 74  1  0
 74 75  2  3
 74 76  1  0
 69 77  1  0
 77 78  2  0
 77 79  1  0
 79 80  1  0
 80 81  1  0
 81 82  1  0
 80 83  1  0
 83 84  2  0
 83 85  1  0
 85 86  1  0
 86 87  1  0
 87 88  1  0
 88 89  2  0
 89 90  1  0
 90 91  2  0
 91 92  1  0
 92 93  2  0
 86 94  1  0
 94 95  2  0
 94 96  1  0
 96 97  1  0
 97 98  1  0
 98 99  1  0
 99100  2  0
100101  1  0
101102  2  0
102103  1  0
103104  2  0
 97105  1  0
105106  2  0
105107  1  0
107108  1  0
108109  1  0
108110  1  0
110111  2  0
110112  1  0
112113  1  0
113114  1  0
114115  1  0
115116  1  0
115117  1  0
113118  1  0
118119  2  0
118120  1  0
120121  1  0
121122  1  0
122123  1  0
123124  1  0
124125  1  0
125126  1  0
126127  2  3
126128  1  0
121129  1  0
129130  2  0
129131  1  0
131132  1  0
132133  1  0
133134  1  0
134135  2  0
134136  1  0
132137  1  0
137138  2  0
137139  1  0
139140  1  0
140141  1  0
141142  1  0
142143  1  0
143144  1  0
143145  2  0
140146  1  0
146147  2  0
146148  1  0
148149  1  0
149150  1  0
150151  1  0
150152  1  0
152153  1  0
149154  1  0
154155  2  0
154156  1  0
  8  3  1  0
 93 88  1  0
104 99  1  0
 11  6  1  0
 18 13  2  0
 22  9  1  0
 26 21  1  0
  2157  1  0
  4158  1  0
  5159  1  0
  8160  1  0
 15161  1  0
 17162  1  0
 18163  1  0
 19164  1  0
 23165  1  0
 24166  1  0
 26167  1  0
 27168  1  0
 29169  1  0
 30170  1  0
 30171  1  0
 31172  1  0
 31173  1  0
 34174  1  0
 35175  1  1
 36176  1  0
 36177  1  0
 38178  1  0
 38179  1  0
 42180  1  0
 43181  1  6
 44182  1  0
 44183  1  0
 45184  1  0
 45185  1  0
 51186  1  0
 52187  1  1
 53188  1  0
 53189  1  0
 54190  1  0
 55191  1  0
 55192  1  0
 55193  1  0
 56194  1  0
 56195  1  0
 56196  1  0
 59197  1  0
 60198  1  6
 61199  1  0
 61200  1  0
 62201  1  0
 62202  1  0
 63203  1  0
 63204  1  0
 64205  1  0
 64206  1  0
 65207  1  0
 65208  1  0
 65209  1  0
 68210  1  0
 69211  1  1
 70212  1  0
 70213  1  0
 71214  1  0
 71215  1  0
 72216  1  0
 72217  1  0
 73218  1  0
 75219  1  0
 75220  1  0
 76221  1  0
 76222  1  0
 79223  1  0
 80224  1  6
 81225  1  0
 81226  1  0
 82227  1  0
 85228  1  0
 86229  1  1
 87230  1  0
 87231  1  0
 89232  1  0
 90233  1  0
 91234  1  0
 92235  1  0
 93236  1  0
 96237  1  0
 97238  1  6
 98239  1  0
 98240  1  0
100241  1  0
101242  1  0
102243  1  0
103244  1  0
104245  1  0
107246  1  0
108247  1  1
109248  1  0
109249  1  0
109250  1  0
112251  1  0
113252  1  6
114253  1  0
114254  1  0
115255  1  0
116256  1  0
116257  1  0
116258  1  0
117259  1  0
117260  1  0
117261  1  0
120262  1  0
121263  1  1
122264  1  0
122265  1  0
123266  1  0
123267  1  0
124268  1  0
124269  1  0
125270  1  0
127271  1  0
127272  1  0
128273  1  0
128274  1  0
131275  1  0
132276  1  6
133277  1  0
133278  1  0
139279  1  0
140280  1  1
141281  1  0
141282  1  0
142283  1  0
142284  1  0
144285  1  0
144286  1  0
148287  1  0
149288  1  6
150289  1  1
151290  1  0
151291  1  0
151292  1  0
152293  1  0
152294  1  0
153295  1  0
153296  1  0
153297  1  0
M  CHG  6  48  -1  65   1  75   1 127   1 136  -1 156  -1
M  END
