
     RDKit          2D

321328  0  0  0  0  0  0  0  0999 V2000
   27.9394   -2.6894    0.0000 C   0  0  0  0  0  0  0  0  0  0  0  0
   29.2507   -1.9609    0.0000 N   0  0  0  0  0  0  0  0  0  0  0  0
   30.5371   -2.7323    0.0000 C   0  0  0  0  0  0  0  0  0  0  0  0
   30.5123   -4.2321    0.0000 C   0  0  0  0  0  0  0  0  0  0  0  0
   31.7988   -5.0035    0.0000 C   0  0  0  0  0  0  0  0  0  0  0  0
   33.1101   -4.2750    0.0000 C   0  0  0  0  0  0  0  0  0  0  0  0
   33.1349   -2.7752    0.0000 C   0  0  0  0  0  0  0  0  0  0  0  0
   31.8484   -2.0039    0.0000 C   0  0  0  0  0  0  0  0  0  0  0  0
   34.5689   -2.3354    0.0000 C   0  0  0  0  0  0  0  0  0  0  0  0
   35.4304   -3.5633    0.0000 O   0  0  0  0  0  0  0  0  0  0  0  0
   34.5288   -4.7621    0.0000 C   0  0  0  0  0  0  0  0  0  0  0  0
   34.9687   -6.1961    0.0000 O   0  0  0  0  0  0  0  0  0  0  0  0
   36.0411   -2.0478    0.0000 C   0  0  0  0  0  0  0  0  0  0  0  0
   36.5281   -0.6290    0.0000 C   0  0  0  0  0  0  0  0  0  0  0  0
   38.0003   -0.3415    0.0000 C   0  0  0  0  0  0  0  0  0  0  0  0
   38.9854   -1.4726    0.0000 C   0  0  0  0  0  0  0  0  0  0  0  0
   38.4984   -2.8914    0.0000 C   0  0  0  0  0  0  0  0  0  0  0  0
   37.0262   -3.1789    0.0000 C   0  0  0  0  0  0  0  0  0  0  0  0
   40.4576   -1.1850    0.0000 O   0  0  0  0  0  0  0  0  0  0  0  0
   35.5430    0.5021    0.0000 O   0  0  0  0  0  0  0  0  0  0  0  0
   34.0708    0.2145    0.0000 C   0  0  0  0  0  0  0  0  0  0  0  0
   33.5838   -1.2042    0.0000 C   0  0  0  0  0  0  0  0  0  0  0  0
   32.3389   -0.8297    0.0000 C   0  0  0  0  0  0  0  0  0  0  0  0
   31.8135   -0.2264    0.0000 C   0  0  0  0  0  0  0  0  0  0  0  0
   32.0732    0.5302    0.0000 C   0  0  0  0  0  0  0  0  0  0  0  0
   32.8584    0.6836    0.0000 C   0  0  0  0  0  0  0  0  0  0  0  0
   30.6284    2.1893    0.0000 O   0  0  0  0  0  0  0  0  0  0  0  0
   27.9146   -4.1892    0.0000 S   0  0  0  0  0  0  0  0  0  0  0  0
   26.6529   -1.9180    0.0000 N   0  0  0  0  0  0  0  0  0  0  0  0
   25.3417   -2.6464    0.0000 C   0  0  0  0  0  0  0  0  0  0  0  0
   24.0552   -1.8751    0.0000 C   0  0  0  0  0  0  0  0  0  0  0  0
   22.7440   -2.6035    0.0000 O   0  0  0  0  0  0  0  0  0  0  0  0
   21.4575   -1.8321    0.0000 C   0  0  0  0  0  0  0  0  0  0  0  0
   20.1462   -2.5606    0.0000 O   0  0  0  0  0  0  0  0  0  0  0  0
   18.8598   -1.7892    0.0000 C   0  0  0  0  0  0  0  0  0  0  0  0
   17.5485   -2.5176    0.0000 C   0  0  0  0  0  0  0  0  0  0  0  0
   16.2621   -1.7463    0.0000 O   0  0  0  0  0  0  0  0  0  0  0  0
   14.9508   -2.4747    0.0000 C   0  0  0  0  0  0  0  0  0  0  0  0
   13.6643   -1.7033    0.0000 C   0  0  0  0  0  0  0  0  0  0  0  0
   12.3531   -2.4318    0.0000 C   0  0  0  0  0  0  0  0  0  0  0  0
   12.5332   -3.2083    0.0000 O   0  0  0  0  0  0  0  0  0  0  0  0
   11.0666   -1.6604    0.0000 N   0  0  0  0  0  0  0  0  0  0  0  0
    9.7554   -2.3888    0.0000 C   0  0  0  0  0  0  0  0  0  0  0  0
   10.7004   -3.5537    0.0000 C   0  0  0  0  0  0  0  0  0  0  0  0
   12.1817   -3.3176    0.0000 C   0  0  0  0  0  0  0  0  0  0  0  0
   13.1268   -4.4825    0.0000 N   0  0  0  0  0  0  0  0  0  0  0  0
   13.0410   -2.0882    0.0000 O   0  0  0  0  0  0  0  0  0  0  0  0
    8.2740   -2.6248    0.0000 C   0  0  0  0  0  0  0  0  0  0  0  0
    8.0927   -4.1138    0.0000 O   0  0  0  0  0  0  0  0  0  0  0  0
    7.3290   -1.4600    0.0000 N   0  0  0  0  0  0  0  0  0  0  0  0
    5.8477   -1.6960    0.0000 C   0  0  0  0  0  0  0  0  0  0  0  0
    6.3373   -3.1138    0.0000 C   0  0  0  0  0  0  0  0  0  0  0  0
    7.8100   -3.3987    0.0000 C   0  0  0  0  0  0  0  0  0  0  0  0
    8.2997   -4.8165    0.0000 C   0  0  0  0  0  0  0  0  0  0  0  0
    9.7267   -5.2788    0.0000 N   0  0  0  0  0  0  0  0  0  0  0  0
    7.3167   -5.9495    0.0000 O   0  0  0  0  0  0  0  0  0  0  0  0
    4.3750   -1.4112    0.0000 C   0  0  0  0  0  0  0  0  0  0  0  0
    3.6953   -2.7484    0.0000 O   0  0  0  0  0  0  0  0  0  0  0  0
    3.8853    0.0067    0.0000 N   0  0  0  0  0  0  0  0  0  0  0  0
    2.4126    0.2915    0.0000 C   0  0  0  0  0  0  0  0  0  0  0  0
    2.3878   -1.2083    0.0000 C   0  0  0  0  0  0  0  0  0  0  0  0
    3.6743   -1.9797    0.0000 C   0  0  0  0  0  0  0  0  0  0  0  0
    3.6495   -3.4795    0.0000 C   0  0  0  0  0  0  0  0  0  0  0  0
    5.1470   -2.2645    0.0000 C   0  0  0  0  0  0  0  0  0  0  0  0
    1.1261    1.0629    0.0000 C   0  0  0  0  0  0  0  0  0  0  0  0
    0.0301    0.0388    0.0000 O   0  0  0  0  0  0  0  0  0  0  0  0
    1.1509    2.5627    0.0000 N   0  0  0  0  0  0  0  0  0  0  0  0
   -0.1355    3.3340    0.0000 C   0  0  0  0  0  0  0  0  0  0  0  0
   -0.2554    1.8388    0.0000 C   0  0  0  0  0  0  0  0  0  0  0  0
   -0.6561    0.3933    0.0000 C   0  0  0  0  0  0  0  0  0  0  0  0
   -1.3231   -0.9502    0.0000 C   0  0  0  0  0  0  0  0  0  0  0  0
   -2.2323   -2.1433    0.0000 C   0  0  0  0  0  0  0  0  0  0  0  0
   -3.3508   -3.1427    0.0000 C   0  0  0  0  0  0  0  0  0  0  0  0
   -4.6383   -3.9124    0.0000 C   0  0  0  0  0  0  0  0  0  0  0  0
   -6.0482   -4.4245    0.0000 C   0  0  0  0  0  0  0  0  0  0  0  0
    1.1269    4.1442    0.0000 C   0  0  0  0  0  0  0  0  0  0  0  0
   -0.3008    4.8249    0.0000 C   0  0  0  0  0  0  0  0  0  0  0  0
    1.1193    5.3078    0.0000 O   0  0  0  0  0  0  0  0  0  0  0  0
   -0.7453    6.2575    0.0000 N   0  0  0  0  0  0  0  0  0  0  0  0
   -1.4528    7.5802    0.0000 C   0  0  0  0  0  0  0  0  0  0  0  0
   -0.8288    8.9442    0.0000 C   0  0  0  0  0  0  0  0  0  0  0  0
    0.6645    9.0858    0.0000 C   0  0  0  0  0  0  0  0  0  0  0  0
    1.2886   10.4499    0.0000 C   0  0  0  0  0  0  0  0  0  0  0  0
    2.7819   10.5915    0.0000 N   0  0  0  0  0  0  0  0  0  0  0  0
    3.4059   11.9555    0.0000 C   0  0  0  0  0  0  0  0  0  0  0  0
    4.8992   12.0971    0.0000 N   0  0  0  0  0  0  0  0  0  0  0  0
    2.5366   13.1779    0.0000 N   0  0  0  0  0  0  0  0  0  0  0  0
   -2.3979    8.7450    0.0000 C   0  0  0  0  0  0  0  0  0  0  0  0
   -1.4643    9.9191    0.0000 O   0  0  0  0  0  0  0  0  0  0  0  0
   -3.5463    9.7100    0.0000 N   0  0  0  0  0  0  0  0  0  0  0  0
   -4.8566   10.4401    0.0000 C   0  0  0  0  0  0  0  0  0  0  0  0
   -5.0691   11.9250    0.0000 C   0  0  0  0  0  0  0  0  0  0  0  0
   -3.8894   12.8515    0.0000 O   0  0  0  0  0  0  0  0  0  0  0  0
   -6.2814   10.9091    0.0000 C   0  0  0  0  0  0  0  0  0  0  0  0
   -6.1307   12.4015    0.0000 O   0  0  0  0  0  0  0  0  0  0  0  0
   -7.7692   11.1000    0.0000 N   0  0  0  0  0  0  0  0  0  0  0  0
   -9.2662   11.0058    0.0000 C   0  0  0  0  0  0  0  0  0  0  0  0
  -10.2478   12.1401    0.0000 C   0  0  0  0  0  0  0  0  0  0  0  0
   -9.7562   13.5573    0.0000 C   0  0  0  0  0  0  0  0  0  0  0  0
   -8.2831   13.8402    0.0000 C   0  0  0  0  0  0  0  0  0  0  0  0
   -7.7916   15.2574    0.0000 C   0  0  0  0  0  0  0  0  0  0  0  0
   -8.7731   16.3916    0.0000 C   0  0  0  0  0  0  0  0  0  0  0  0
  -10.2462   16.1087    0.0000 C   0  0  0  0  0  0  0  0  0  0  0  0
  -10.7378   14.6916    0.0000 C   0  0  0  0  0  0  0  0  0  0  0  0
  -10.7184   10.6301    0.0000 C   0  0  0  0  0  0  0  0  0  0  0  0
  -11.3985   11.9670    0.0000 O   0  0  0  0  0  0  0  0  0  0  0  0
  -12.0732    9.9863    0.0000 N   0  0  0  0  0  0  0  0  0  0  0  0
  -13.2817    9.0977    0.0000 C   0  0  0  0  0  0  0  0  0  0  0  0
  -14.7207    9.5213    0.0000 C   0  0  0  0  0  0  0  0  0  0  0  0
  -15.0733   10.9792    0.0000 C   0  0  0  0  0  0  0  0  0  0  0  0
  -13.9871   12.0136    0.0000 C   0  0  0  0  0  0  0  0  0  0  0  0
  -14.3397   13.4716    0.0000 C   0  0  0  0  0  0  0  0  0  0  0  0
  -15.7787   13.8951    0.0000 C   0  0  0  0  0  0  0  0  0  0  0  0
  -16.8650   12.8607    0.0000 C   0  0  0  0  0  0  0  0  0  0  0  0
  -16.5123   11.4028    0.0000 C   0  0  0  0  0  0  0  0  0  0  0  0
  -14.3002    7.9965    0.0000 C   0  0  0  0  0  0  0  0  0  0  0  0
  -15.5952    8.7535    0.0000 O   0  0  0  0  0  0  0  0  0  0  0  0
  -15.0919    6.7224    0.0000 N   0  0  0  0  0  0  0  0  0  0  0  0
  -15.6281    5.3216    0.0000 C   0  0  0  0  0  0  0  0  0  0  0  0
  -17.0676    4.8999    0.0000 C   0  0  0  0  0  0  0  0  0  0  0  0
  -15.8896    3.8445    0.0000 C   0  0  0  0  0  0  0  0  0  0  0  0
  -17.3882    3.7812    0.0000 O   0  0  0  0  0  0  0  0  0  0  0  0
  -15.8668    2.3447    0.0000 N   0  0  0  0  0  0  0  0  0  0  0  0
  -15.5605    0.8763    0.0000 C   0  0  0  0  0  0  0  0  0  0  0  0
  -16.5436   -0.2567    0.0000 C   0  0  0  0  0  0  0  0  0  0  0  0
  -18.0163    0.0282    0.0000 C   0  0  0  0  0  0  0  0  0  0  0  0
  -18.9993   -1.1048    0.0000 C   0  0  0  0  0  0  0  0  0  0  0  0
  -19.3027    0.7995    0.0000 C   0  0  0  0  0  0  0  0  0  0  0  0
  -14.9819   -0.5076    0.0000 C   0  0  0  0  0  0  0  0  0  0  0  0
  -16.2085   -1.3711    0.0000 O   0  0  0  0  0  0  0  0  0  0  0  0
  -14.1519   -1.7570    0.0000 N   0  0  0  0  0  0  0  0  0  0  0  0
  -13.1004   -2.8268    0.0000 C   0  0  0  0  0  0  0  0  0  0  0  0
  -11.8654   -3.6782    0.0000 C   0  0  0  0  0  0  0  0  0  0  0  0
  -10.4916   -4.2805    0.0000 C   0  0  0  0  0  0  0  0  0  0  0  0
   -9.0287   -4.6119    0.0000 C   0  0  0  0  0  0  0  0  0  0  0  0
   -7.5295   -4.6605    0.0000 C   0  0  0  0  0  0  0  0  0  0  0  0
  -14.5258   -3.2939    0.0000 C   0  0  0  0  0  0  0  0  0  0  0  0
  -13.3148   -4.3113    0.0000 C   0  0  0  0  0  0  0  0  0  0  0  0
  -12.3959   -5.4969    0.0000 O   0  0  0  0  0  0  0  0  0  0  0  0
  -14.7077   -4.8679    0.0000 N   0  0  0  0  0  0  0  0  0  0  0  0
  -14.9222   -6.3525    0.0000 C   0  0  0  0  0  0  0  0  0  0  0  0
  -14.6159   -7.8209    0.0000 C   0  0  0  0  0  0  0  0  0  0  0  0
  -15.7345   -8.8203    0.0000 C   0  0  0  0  0  0  0  0  0  0  0  0
  -15.4283  -10.2887    0.0000 O   0  0  0  0  0  0  0  0  0  0  0  0
  -17.2304   -8.7100    0.0000 O   0  0  0  0  0  0  0  0  0  0  0  0
  -16.3151   -6.9091    0.0000 C   0  0  0  0  0  0  0  0  0  0  0  0
  -17.4936   -5.9811    0.0000 O   0  0  0  0  0  0  0  0  0  0  0  0
  -16.5296   -8.3937    0.0000 N   0  0  0  0  0  0  0  0  0  0  0  0
  -17.9225   -8.9503    0.0000 C   0  0  0  0  0  0  0  0  0  0  0  0
  -19.4217   -8.9969    0.0000 C   0  0  0  0  0  0  0  0  0  0  0  0
  -20.1310  -10.3186    0.0000 C   0  0  0  0  0  0  0  0  0  0  0  0
  -21.6303  -10.3652    0.0000 C   0  0  0  0  0  0  0  0  0  0  0  0
  -22.4954  -11.5906    0.0000 N   0  0  0  0  0  0  0  0  0  0  0  0
  -22.4203   -9.0901    0.0000 O   0  0  0  0  0  0  0  0  0  0  0  0
  -18.1369  -10.4348    0.0000 C   0  0  0  0  0  0  0  0  0  0  0  0
  -16.9585  -11.3629    0.0000 O   0  0  0  0  0  0  0  0  0  0  0  0
  -19.5298  -10.9914    0.0000 N   0  0  0  0  0  0  0  0  0  0  0  0
  -19.7443  -12.4760    0.0000 C   0  0  0  0  0  0  0  0  0  0  0  0
  -19.4381  -13.9444    0.0000 C   0  0  0  0  0  0  0  0  0  0  0  0
  -20.5566  -14.9438    0.0000 C   0  0  0  0  0  0  0  0  0  0  0  0
  -18.6481  -15.2195    0.0000 C   0  0  0  0  0  0  0  0  0  0  0  0
  -17.1488  -15.1729    0.0000 C   0  0  0  0  0  0  0  0  0  0  0  0
  -21.1372  -13.0326    0.0000 C   0  0  0  0  0  0  0  0  0  0  0  0
  -21.5310  -14.4800    0.0000 O   0  0  0  0  0  0  0  0  0  0  0  0
  -22.4200  -12.2551    0.0000 O   0  0  0  0  0  0  0  0  0  0  0  0
   29.0925   -0.4693    0.0000 H   0  0  0  0  0  0  0  0  0  0  0  0
   29.2011   -4.9605    0.0000 H   0  0  0  0  0  0  0  0  0  0  0  0
   31.7740   -6.5033    0.0000 H   0  0  0  0  0  0  0  0  0  0  0  0
   31.5095   -0.5427    0.0000 H   0  0  0  0  0  0  0  0  0  0  0  0
   38.4873    1.0773    0.0000 H   0  0  0  0  0  0  0  0  0  0  0  0
   39.4835   -4.0225    0.0000 H   0  0  0  0  0  0  0  0  0  0  0  0
   36.5392   -4.5977    0.0000 H   0  0  0  0  0  0  0  0  0  0  0  0
   41.4427   -2.3162    0.0000 H   0  0  0  0  0  0  0  0  0  0  0  0
   31.6246   -2.9105    0.0000 H   0  0  0  0  0  0  0  0  0  0  0  0
   29.6302   -0.4666    0.0000 H   0  0  0  0  0  0  0  0  0  0  0  0
   33.5727    2.7644    0.0000 H   0  0  0  0  0  0  0  0  0  0  0  0
   31.1154    3.6080    0.0000 H   0  0  0  0  0  0  0  0  0  0  0  0
   26.6777   -0.4182    0.0000 H   0  0  0  0  0  0  0  0  0  0  0  0
   26.2867   -3.8113    0.0000 H   0  0  0  0  0  0  0  0  0  0  0  0
   24.3586   -3.7794    0.0000 H   0  0  0  0  0  0  0  0  0  0  0  0
   25.0383   -0.7421    0.0000 H   0  0  0  0  0  0  0  0  0  0  0  0
   23.2592   -0.6037    0.0000 H   0  0  0  0  0  0  0  0  0  0  0  0
   22.2951   -0.5878    0.0000 H   0  0  0  0  0  0  0  0  0  0  0  0
   20.6615   -0.5608    0.0000 H   0  0  0  0  0  0  0  0  0  0  0  0
   19.6974   -0.5448    0.0000 H   0  0  0  0  0  0  0  0  0  0  0  0
   17.9147   -0.6244    0.0000 H   0  0  0  0  0  0  0  0  0  0  0  0
   18.4936   -3.6825    0.0000 H   0  0  0  0  0  0  0  0  0  0  0  0
   16.7109   -3.7620    0.0000 H   0  0  0  0  0  0  0  0  0  0  0  0
   15.7468   -3.7460    0.0000 H   0  0  0  0  0  0  0  0  0  0  0  0
   14.1132   -3.7190    0.0000 H   0  0  0  0  0  0  0  0  0  0  0  0
   14.6474   -0.5703    0.0000 H   0  0  0  0  0  0  0  0  0  0  0  0
   12.7193   -0.5385    0.0000 H   0  0  0  0  0  0  0  0  0  0  0  0
   11.0914   -0.1606    0.0000 H   0  0  0  0  0  0  0  0  0  0  0  0
    9.2657   -0.9710    0.0000 H   0  0  0  0  0  0  0  0  0  0  0  0
   11.1901   -4.9715    0.0000 H   0  0  0  0  0  0  0  0  0  0  0  0
    9.4877   -4.4365    0.0000 H   0  0  0  0  0  0  0  0  0  0  0  0
   14.6258   -4.4288    0.0000 H   0  0  0  0  0  0  0  0  0  0  0  0
   12.5905   -5.8834    0.0000 H   0  0  0  0  0  0  0  0  0  0  0  0
    7.8652   -0.0591    0.0000 H   0  0  0  0  0  0  0  0  0  0  0  0
    6.0551   -0.2104    0.0000 H   0  0  0  0  0  0  0  0  0  0  0  0
    6.3125   -4.6136    0.0000 H   0  0  0  0  0  0  0  0  0  0  0  0
    4.9572   -3.7013    0.0000 H   0  0  0  0  0  0  0  0  0  0  0  0
    9.2914   -3.1627    0.0000 H   0  0  0  0  0  0  0  0  0  0  0  0
    8.1970   -1.9495    0.0000 H   0  0  0  0  0  0  0  0  0  0  0  0
   10.2621   -6.5192    0.0000 H   0  0  0  0  0  0  0  0  0  0  0  0
   11.0420   -4.2563    0.0000 H   0  0  0  0  0  0  0  0  0  0  0  0
    4.8683    1.1396    0.0000 H   0  0  0  0  0  0  0  0  0  0  0  0
    2.9488    1.6924    0.0000 H   0  0  0  0  0  0  0  0  0  0  0  0
    1.6848   -2.5333    0.0000 H   0  0  0  0  0  0  0  0  0  0  0  0
    0.9151   -0.9234    0.0000 H   0  0  0  0  0  0  0  0  0  0  0  0
    4.5336   -0.7502    0.0000 H   0  0  0  0  0  0  0  0  0  0  0  0
    4.7111   -4.5392    0.0000 H   0  0  0  0  0  0  0  0  0  0  0  0
    3.1132   -4.8803    0.0000 H   0  0  0  0  0  0  0  0  0  0  0  0
    2.1530   -3.3762    0.0000 H   0  0  0  0  0  0  0  0  0  0  0  0
    5.6366   -3.6823    0.0000 H   0  0  0  0  0  0  0  0  0  0  0  0
    6.6414   -2.3939    0.0000 H   0  0  0  0  0  0  0  0  0  0  0  0
    4.9888   -0.7729    0.0000 H   0  0  0  0  0  0  0  0  0  0  0  0
    2.5412    3.1258    0.0000 H   0  0  0  0  0  0  0  0  0  0  0  0
    1.2308    2.0418    0.0000 H   0  0  0  0  0  0  0  0  0  0  0  0
    0.7315    0.7092    0.0000 H   0  0  0  0  0  0  0  0  0  0  0  0
    0.8205    0.1294    0.0000 H   0  0  0  0  0  0  0  0  0  0  0  0
    0.2516   -0.8009    0.0000 H   0  0  0  0  0  0  0  0  0  0  0  0
    0.1769   -0.9512    0.0000 H   0  0  0  0  0  0  0  0  0  0  0  0
   -0.4989   -2.2035    0.0000 H   0  0  0  0  0  0  0  0  0  0  0  0
   -0.8053   -2.6055    0.0000 H   0  0  0  0  0  0  0  0  0  0  0  0
   -1.6602   -3.5299    0.0000 H   0  0  0  0  0  0  0  0  0  0  0  0
   -2.0371   -3.8666    0.0000 H   0  0  0  0  0  0  0  0  0  0  0  0
   -3.0515   -4.6125    0.0000 H   0  0  0  0  0  0  0  0  0  0  0  0
   -3.4853   -4.8718    0.0000 H   0  0  0  0  0  0  0  0  0  0  0  0
   -4.8055   -5.4030    0.0000 H   0  0  0  0  0  0  0  0  0  0  0  0
   -5.6724   -5.8766    0.0000 H   0  0  0  0  0  0  0  0  0  0  0  0
    2.5336    3.6235    0.0000 H   0  0  0  0  0  0  0  0  0  0  0  0
    2.1747    5.2175    0.0000 H   0  0  0  0  0  0  0  0  0  0  0  0
    0.4068    5.4600    0.0000 H   0  0  0  0  0  0  0  0  0  0  0  0
    0.6989    6.6631    0.0000 H   0  0  0  0  0  0  0  0  0  0  0  0
    0.0410    7.4437    0.0000 H   0  0  0  0  0  0  0  0  0  0  0  0
   -0.7089   10.4394    0.0000 H   0  0  0  0  0  0  0  0  0  0  0  0
   -2.1459    9.6619    0.0000 H   0  0  0  0  0  0  0  0  0  0  0  0
    2.1162    8.7081    0.0000 H   0  0  0  0  0  0  0  0  0  0  0  0
    0.9100    7.6060    0.0000 H   0  0  0  0  0  0  0  0  0  0  0  0
    1.4084   11.9451    0.0000 H   0  0  0  0  0  0  0  0  0  0  0  0
   -0.1063   11.0017    0.0000 H   0  0  0  0  0  0  0  0  0  0  0  0
    3.6511    9.3690    0.0000 H   0  0  0  0  0  0  0  0  0  0  0  0
    5.5232   13.4611    0.0000 H   0  0  0  0  0  0  0  0  0  0  0  0
    3.1606   14.5420    0.0000 H   0  0  0  0  0  0  0  0  0  0  0  0
    1.0433   13.0363    0.0000 H   0  0  0  0  0  0  0  0  0  0  0  0
   -2.6949   10.9449    0.0000 H   0  0  0  0  0  0  0  0  0  0  0  0
   -3.6205   11.2899    0.0000 H   0  0  0  0  0  0  0  0  0  0  0  0
   -5.6101   13.3240    0.0000 H   0  0  0  0  0  0  0  0  0  0  0  0
   -6.5651   11.8167    0.0000 H   0  0  0  0  0  0  0  0  0  0  0  0
   -4.1019   14.3363    0.0000 H   0  0  0  0  0  0  0  0  0  0  0  0
   -7.5382   12.5821    0.0000 H   0  0  0  0  0  0  0  0  0  0  0  0
   -8.6858   12.3890    0.0000 H   0  0  0  0  0  0  0  0  0  0  0  0
  -11.4593   13.0246    0.0000 H   0  0  0  0  0  0  0  0  0  0  0  0
  -11.4478   11.2402    0.0000 H   0  0  0  0  0  0  0  0  0  0  0  0
   -7.1707   12.8340    0.0000 H   0  0  0  0  0  0  0  0  0  0  0  0
   -6.3185   15.5403    0.0000 H   0  0  0  0  0  0  0  0  0  0  0  0
   -8.2816   17.8088    0.0000 H   0  0  0  0  0  0  0  0  0  0  0  0
  -11.2278   17.2430    0.0000 H   0  0  0  0  0  0  0  0  0  0  0  0
  -12.2108   14.4087    0.0000 H   0  0  0  0  0  0  0  0  0  0  0  0
  -12.6802   11.3580    0.0000 H   0  0  0  0  0  0  0  0  0  0  0  0
  -13.5412   10.5751    0.0000 H   0  0  0  0  0  0  0  0  0  0  0  0
  -16.2180    9.6103    0.0000 H   0  0  0  0  0  0  0  0  0  0  0  0
  -15.2436    8.1154    0.0000 H   0  0  0  0  0  0  0  0  0  0  0  0
  -12.5072   11.7686    0.0000 H   0  0  0  0  0  0  0  0  0  0  0  0
  -13.2534   14.5060    0.0000 H   0  0  0  0  0  0  0  0  0  0  0  0
  -16.1314   15.3531    0.0000 H   0  0  0  0  0  0  0  0  0  0  0  0
  -18.3039   13.2843    0.0000 H   0  0  0  0  0  0  0  0  0  0  0  0
  -17.5986   10.3684    0.0000 H   0  0  0  0  0  0  0  0  0  0  0  0
  -16.4354    7.3894    0.0000 H   0  0  0  0  0  0  0  0  0  0  0  0
  -16.6452    6.4241    0.0000 H   0  0  0  0  0  0  0  0  0  0  0  0
  -18.1526    5.9358    0.0000 H   0  0  0  0  0  0  0  0  0  0  0  0
  -18.3754    4.1653    0.0000 H   0  0  0  0  0  0  0  0  0  0  0  0
  -16.7475    3.4345    0.0000 H   0  0  0  0  0  0  0  0  0  0  0  0
  -17.3667    2.3624    0.0000 H   0  0  0  0  0  0  0  0  0  0  0  0
  -16.9553    1.4281    0.0000 H   0  0  0  0  0  0  0  0  0  0  0  0
  -17.0798   -1.6575    0.0000 H   0  0  0  0  0  0  0  0  0  0  0  0
  -15.4820   -1.3164    0.0000 H   0  0  0  0  0  0  0  0  0  0  0  0
  -17.8349    1.5172    0.0000 H   0  0  0  0  0  0  0  0  0  0  0  0
  -20.4957   -1.0016    0.0000 H   0  0  0  0  0  0  0  0  0  0  0  0
  -19.5356   -2.5057    0.0000 H   0  0  0  0  0  0  0  0  0  0  0  0
  -17.8165   -2.0272    0.0000 H   0  0  0  0  0  0  0  0  0  0  0  0
  -20.6930    0.2364    0.0000 H   0  0  0  0  0  0  0  0  0  0  0  0
  -20.2478    1.9644    0.0000 H   0  0  0  0  0  0  0  0  0  0  0  0
  -18.3197    1.9325    0.0000 H   0  0  0  0  0  0  0  0  0  0  0  0
  -15.4232   -2.5530    0.0000 H   0  0  0  0  0  0  0  0  0  0  0  0
  -11.7950   -5.1765    0.0000 H   0  0  0  0  0  0  0  0  0  0  0  0
  -12.9614   -4.7022    0.0000 H   0  0  0  0  0  0  0  0  0  0  0  0
  -10.3193   -5.7705    0.0000 H   0  0  0  0  0  0  0  0  0  0  0  0
  -11.3740   -5.4935    0.0000 H   0  0  0  0  0  0  0  0  0  0  0  0
   -8.4065   -5.9768    0.0000 H   0  0  0  0  0  0  0  0  0  0  0  0
   -9.8264   -5.8822    0.0000 H   0  0  0  0  0  0  0  0  0  0  0  0
   -7.4353   -6.1575    0.0000 H   0  0  0  0  0  0  0  0  0  0  0  0
  -15.1800   -4.6437    0.0000 H   0  0  0  0  0  0  0  0  0  0  0  0
  -16.0250   -3.2453    0.0000 H   0  0  0  0  0  0  0  0  0  0  0  0
  -15.0912   -1.9045    0.0000 H   0  0  0  0  0  0  0  0  0  0  0  0
  -15.9905   -4.0905    0.0000 H   0  0  0  0  0  0  0  0  0  0  0  0
  -13.4229   -6.3059    0.0000 H   0  0  0  0  0  0  0  0  0  0  0  0
  -13.8259   -9.0960    0.0000 H   0  0  0  0  0  0  0  0  0  0  0  0
  -13.2230   -7.2643    0.0000 H   0  0  0  0  0  0  0  0  0  0  0  0
  -18.4018   -9.0783    0.0000 H   0  0  0  0  0  0  0  0  0  0  0  0
  -15.6107   -9.5793    0.0000 H   0  0  0  0  0  0  0  0  0  0  0  0
  -18.2287   -7.4818    0.0000 H   0  0  0  0  0  0  0  0  0  0  0  0
  -20.8465   -8.5279    0.0000 H   0  0  0  0  0  0  0  0  0  0  0  0
  -19.2073   -7.5123    0.0000 H   0  0  0  0  0  0  0  0  0  0  0  0
  -20.3455  -11.8032    0.0000 H   0  0  0  0  0  0  0  0  0  0  0  0
  -19.0933  -11.4017    0.0000 H   0  0  0  0  0  0  0  0  0  0  0  0
  -23.8389  -11.7335    0.0000 H   0  0  0  0  0  0  0  0  0  0  0  0
  -22.1040  -13.2099    0.0000 H   0  0  0  0  0  0  0  0  0  0  0  0
  -20.8978  -10.3761    0.0000 H   0  0  0  0  0  0  0  0  0  0  0  0
  -18.2450  -12.4294    0.0000 H   0  0  0  0  0  0  0  0  0  0  0  0
  -18.1234  -13.2222    0.0000 H   0  0  0  0  0  0  0  0  0  0  0  0
  -20.4316  -16.4386    0.0000 H   0  0  0  0  0  0  0  0  0  0  0  0
  -21.9495  -15.5004    0.0000 H   0  0  0  0  0  0  0  0  0  0  0  0
  -21.8528  -14.1890    0.0000 H   0  0  0  0  0  0  0  0  0  0  0  0
  -18.3418  -16.6879    0.0000 H   0  0  0  0  0  0  0  0  0  0  0  0
  -19.9627  -15.9417    0.0000 H   0  0  0  0  0  0  0  0  0  0  0  0
  -16.3588  -16.4480    0.0000 H   0  0  0  0  0  0  0  0  0  0  0  0
  -15.7559  -14.6163    0.0000 H   0  0  0  0  0  0  0  0  0  0  0  0
  -17.2737  -13.6781    0.0000 H   0  0  0  0  0  0  0  0  0  0  0  0
  -23.7086  -12.6611    0.0000 H   0  0  0  0  0  0  0  0  0  0  0  0
  1  2  1  0
  2  3  1  0
  3  4  2  0
  4  5  1  0
  5  6  2  0
  6  7  1  0
  7  8  2  0
  7  9  1  0
  9 10  1  0
 10 11  1  0
 11 12  2  0
  9 13  1  0
 13 14  1  0
 14 15  2  0
 15 16  1  0
 16 17  2  0
 17 18  1  0
 16 19  1  0
 14 20  1  0
 20 21  1  0
 21 22  2  0
 22 23  1  0
 23 24  2  0
 24 25  1  0
 25 26  2  0
 25 27  1  0
  1 28  2  0
  1 29  1  0
 29 30  1  0
 30 31  1  0
 31 32  1  0
 32 33  1  0
 33 34  1  0
 34 35  1  0
 35 36  1  0
 36 37  1  0
 37 38  1  0
 38 39  1  0
 39 40  1  0
 40 41  2  0
 40 42  1  0
 42 43  1  0
 43 44  1  0
 44 45  1  0
 45 46  1  0
 45 47  2  0
 43 48  1  0
 48 49  2  0
 48 50  1  0
 50 51  1  0
 51 52  1  0
 52 53  1  0
 53 54  1  0
 54 55  1  0
 54 56  2  0
 51 57  1  0
 57 58  2  0
 57 59  1  0
 59 60  1  0
 60 61  1  0
 61 62  1  0
 62 63  1  0
 62 64  1  0
 60 65  1  0
 65 66  2  0
 65 67  1  0
 68 67  1  6
 68 69  1  0
 69 70  1  0
 70 71  1  0
 71 72  1  0
 72 73  1  0
 73 74  1  0
 74 75  1  0
 68 76  1  0
 68 77  1  0
 77 78  2  0
 77 79  1  0
 79 80  1  0
 80 81  1  0
 81 82  1  0
 82 83  1  0
 83 84  1  0
 84 85  1  0
 85 86  2  3
 85 87  1  0
 80 88  1  0
 88 89  2  0
 88 90  1  0
 90 91  1  0
 91 92  1  0
 92 93  1  0
 91 94  1  0
 94 95  2  0
 94 96  1  0
 96 97  1  0
 97 98  1  0
 98 99  1  0
 99100  2  0
100101  1  0
101102  2  0
102103  1  0
103104  2  0
 97105  1  0
105106  2  0
105107  1  0
107108  1  0
108109  1  0
109110  1  0
110111  2  0
111112  1  0
112113  2  0
113114  1  0
114115  2  0
108116  1  0
116117  2  0
116118  1  0
118119  1  0
119120  1  0
119121  1  0
121122  2  0
121123  1  0
123124  1  0
124125  1  0
125126  1  0
126127  1  0
126128  1  0
124129  1  0
129130  2  0
129131  1  0
131132  1  0
132133  1  0
133134  1  0
134135  1  0
135136  1  0
132137  1  0
132138  1  1
138139  2  0
138140  1  0
140141  1  0
141142  1  0
142143  1  0
143144  2  0
143145  1  0
141146  1  0
146147  2  0
146148  1  0
148149  1  0
149150  1  0
150151  1  0
151152  1  0
152153  1  0
152154  2  0
149155  1  0
155156  2  0
155157  1  0
157158  1  0
158159  1  0
159160  1  0
159161  1  0
161162  1  0
158163  1  0
163164  2  0
163165  1  0
  8  3  1  0
104 99  1  0
115110  1  0
 11  6  1  0
 75136  2  0
 18 13  2  0
 22  9  1  0
 26 21  1  0
  2166  1  0
  4167  1  0
  5168  1  0
  8169  1  0
 15170  1  0
 17171  1  0
 18172  1  0
 19173  1  0
 23174  1  0
 24175  1  0
 26176  1  0
 27177  1  0
 29178  1  0
 30179  1  0
 30180  1  0
 31181  1  0
 31182  1  0
 33183  1  0
 33184  1  0
 35185  1  0
 35186  1  0
 36187  1  0
 36188  1  0
 38189  1  0
 38190  1  0
 39191  1  0
 39192  1  0
 42193  1  0
 43194  1  1
 44195  1  0
 44196  1  0
 46197  1  0
 46198  1  0
 50199  1  0
 51200  1  1
 52201  1  0
 52202  1  0
 53203  1  0
 53204  1  0
 55205  1  0
 55206  1  0
 59207  1  0
 60208  1  1
 61209  1  0
 61210  1  0
 62211  1  0
 63212  1  0
 63213  1  0
 63214  1  0
 64215  1  0
 64216  1  0
 64217  1  0
 67218  1  0
 69219  1  0
 69220  1  0
 70221  1  0
 70222  1  0
 71223  1  0
 71224  1  0
 72225  1  0
 72226  1  0
 73227  1  0
 73228  1  0
 74229  1  0
 74230  1  0
 75231  1  0
 76232  1  0
 76233  1  0
 76234  1  0
 79235  1  0
 80236  1  6
 81237  1  0
 81238  1  0
 82239  1  0
 82240  1  0
 83241  1  0
 83242  1  0
 84243  1  0
 86244  1  0
 87245  1  0
 87246  1  0
 90247  1  0
 91248  1  6
 92249  1  0
 92250  1  0
 93251  1  0
 96252  1  0
 97253  1  6
 98254  1  0
 98255  1  0
100256  1  0
101257  1  0
102258  1  0
103259  1  0
104260  1  0
107261  1  0
108262  1  6
109263  1  0
109264  1  0
111265  1  0
112266  1  0
113267  1  0
114268  1  0
115269  1  0
118270  1  0
119271  1  6
120272  1  0
120273  1  0
120274  1  0
123275  1  0
124276  1  6
125277  1  0
125278  1  0
126279  1  0
127280  1  0
127281  1  0
127282  1  0
128283  1  0
128284  1  0
128285  1  0
131286  1  0
133287  1  0
133288  1  0
134289  1  0
134290  1  0
135291  1  0
135292  1  0
136293  1  0
137294  1  0
137295  1  0
137296  1  0
140297  1  0
141298  1  1
142299  1  0
142300  1  0
145301  1  0
148302  1  0
149303  1  6
150304  1  0
150305  1  0
151306  1  0
151307  1  0
153308  1  0
153309  1  0
157310  1  0
158311  1  1
159312  1  1
160313  1  0
160314  1  0
160315  1  0
161316  1  0
161317  1  0
162318  1  0
162319  1  0
162320  1  0
165321  1  0
M  END
