
     RDKit          2D

302303  0  0  0  0  0  0  0  0999 V2000
  -27.7161    4.7892    0.0000 N   0  0  0  0  0  0  0  0  0  0  0  0
  -26.2269    4.6090    0.0000 C   0  0  0  0  0  0  0  0  0  0  0  0
  -25.6384    3.2293    0.0000 C   0  0  0  0  0  0  0  0  0  0  0  0
  -24.1492    3.0492    0.0000 C   0  0  0  0  0  0  0  0  0  0  0  0
  -23.4016    4.3496    0.0000 O   0  0  0  0  0  0  0  0  0  0  0  0
  -23.5606    1.6695    0.0000 N   0  0  0  0  0  0  0  0  0  0  0  0
  -22.0715    1.4894    0.0000 C   0  0  0  0  0  0  0  0  0  0  0  0
  -22.5075    0.0541    0.0000 C   0  0  0  0  0  0  0  0  0  0  0  0
  -23.9990   -0.1053    0.0000 C   0  0  0  0  0  0  0  0  0  0  0  0
  -22.4263   -1.4437    0.0000 C   0  0  0  0  0  0  0  0  0  0  0  0
  -23.5736   -2.4100    0.0000 C   0  0  0  0  0  0  0  0  0  0  0  0
  -20.6106    1.8294    0.0000 C   0  0  0  0  0  0  0  0  0  0  0  0
  -19.5856    0.7342    0.0000 O   0  0  0  0  0  0  0  0  0  0  0  0
  -20.1746    3.2646    0.0000 N   0  0  0  0  0  0  0  0  0  0  0  0
  -18.7136    3.6047    0.0000 C   0  0  0  0  0  0  0  0  0  0  0  0
  -19.3022    4.9844    0.0000 C   0  0  0  0  0  0  0  0  0  0  0  0
  -20.7913    5.1645    0.0000 C   0  0  0  0  0  0  0  0  0  0  0  0
  -21.3799    6.5442    0.0000 C   0  0  0  0  0  0  0  0  0  0  0  0
  -22.2523    4.8245    0.0000 C   0  0  0  0  0  0  0  0  0  0  0  0
  -17.2245    3.4246    0.0000 C   0  0  0  0  0  0  0  0  0  0  0  0
  -16.4768    4.7250    0.0000 O   0  0  0  0  0  0  0  0  0  0  0  0
  -16.6359    2.0448    0.0000 N   0  0  0  0  0  0  0  0  0  0  0  0
  -15.1468    1.8647    0.0000 C   0  0  0  0  0  0  0  0  0  0  0  0
  -14.0264    2.8620    0.0000 C   0  0  0  0  0  0  0  0  0  0  0  0
  -12.6618    3.4848    0.0000 C   0  0  0  0  0  0  0  0  0  0  0  0
  -11.1742    3.6777    0.0000 C   0  0  0  0  0  0  0  0  0  0  0  0
   -9.6959    3.4236    0.0000 C   0  0  0  0  0  0  0  0  0  0  0  0
  -15.7662    3.2308    0.0000 C   0  0  0  0  0  0  0  0  0  0  0  0
  -15.9234    0.5814    0.0000 C   0  0  0  0  0  0  0  0  0  0  0  0
  -17.3681    0.9851    0.0000 O   0  0  0  0  0  0  0  0  0  0  0  0
  -16.2873   -0.8738    0.0000 N   0  0  0  0  0  0  0  0  0  0  0  0
  -16.2061   -2.3716    0.0000 C   0  0  0  0  0  0  0  0  0  0  0  0
  -17.6048   -1.8295    0.0000 C   0  0  0  0  0  0  0  0  0  0  0  0
  -15.6871   -3.7789    0.0000 C   0  0  0  0  0  0  0  0  0  0  0  0
  -17.0013   -4.5019    0.0000 O   0  0  0  0  0  0  0  0  0  0  0  0
  -14.7762   -4.9707    0.0000 N   0  0  0  0  0  0  0  0  0  0  0  0
  -13.5546   -5.8411    0.0000 C   0  0  0  0  0  0  0  0  0  0  0  0
  -14.8504   -6.5966    0.0000 C   0  0  0  0  0  0  0  0  0  0  0  0
  -14.8440   -8.0966    0.0000 O   0  0  0  0  0  0  0  0  0  0  0  0
  -12.1307   -6.3127    0.0000 C   0  0  0  0  0  0  0  0  0  0  0  0
  -12.3848   -7.7910    0.0000 O   0  0  0  0  0  0  0  0  0  0  0  0
  -10.6310   -6.3437    0.0000 N   0  0  0  0  0  0  0  0  0  0  0  0
   -9.1888   -5.9312    0.0000 C   0  0  0  0  0  0  0  0  0  0  0  0
   -9.4060   -7.4154    0.0000 C   0  0  0  0  0  0  0  0  0  0  0  0
   -8.2293   -8.3456    0.0000 C   0  0  0  0  0  0  0  0  0  0  0  0
   -7.9323   -5.1120    0.0000 C   0  0  0  0  0  0  0  0  0  0  0  0
   -6.9349   -6.2324    0.0000 O   0  0  0  0  0  0  0  0  0  0  0  0
   -6.9730   -3.9588    0.0000 N   0  0  0  0  0  0  0  0  0  0  0  0
   -6.3963   -2.5741    0.0000 C   0  0  0  0  0  0  0  0  0  0  0  0
   -6.2533   -1.0810    0.0000 C   0  0  0  0  0  0  0  0  0  0  0  0
   -6.5569    0.3880    0.0000 C   0  0  0  0  0  0  0  0  0  0  0  0
   -7.2799    1.7023    0.0000 C   0  0  0  0  0  0  0  0  0  0  0  0
   -8.3582    2.7450    0.0000 C   0  0  0  0  0  0  0  0  0  0  0  0
   -4.9281   -2.2670    0.0000 C   0  0  0  0  0  0  0  0  0  0  0  0
   -5.3713   -3.6693    0.0000 C   0  0  0  0  0  0  0  0  0  0  0  0
   -5.8073   -5.1046    0.0000 O   0  0  0  0  0  0  0  0  0  0  0  0
   -3.9104   -3.3293    0.0000 N   0  0  0  0  0  0  0  0  0  0  0  0
   -2.8854   -4.4245    0.0000 C   0  0  0  0  0  0  0  0  0  0  0  0
   -2.2969   -5.8042    0.0000 C   0  0  0  0  0  0  0  0  0  0  0  0
   -3.1974   -7.0038    0.0000 C   0  0  0  0  0  0  0  0  0  0  0  0
   -4.6866   -6.8236    0.0000 C   0  0  0  0  0  0  0  0  0  0  0  0
   -5.5872   -8.0232    0.0000 C   0  0  0  0  0  0  0  0  0  0  0  0
   -4.9986   -9.4029    0.0000 C   0  0  0  0  0  0  0  0  0  0  0  0
   -5.8992  -10.6025    0.0000 O   0  0  0  0  0  0  0  0  0  0  0  0
   -3.5094   -9.5830    0.0000 C   0  0  0  0  0  0  0  0  0  0  0  0
   -2.6089   -8.3835    0.0000 C   0  0  0  0  0  0  0  0  0  0  0  0
   -1.4245   -4.0844    0.0000 C   0  0  0  0  0  0  0  0  0  0  0  0
   -0.2737   -5.0465    0.0000 O   0  0  0  0  0  0  0  0  0  0  0  0
   -0.9885   -2.6492    0.0000 N   0  0  0  0  0  0  0  0  0  0  0  0
    0.4725   -2.3091    0.0000 C   0  0  0  0  0  0  0  0  0  0  0  0
    1.9616   -2.4893    0.0000 C   0  0  0  0  0  0  0  0  0  0  0  0
    2.3776   -3.9304    0.0000 C   0  0  0  0  0  0  0  0  0  0  0  0
    3.4225   -2.1492    0.0000 C   0  0  0  0  0  0  0  0  0  0  0  0
    4.4475   -3.2444    0.0000 C   0  0  0  0  0  0  0  0  0  0  0  0
    0.9084   -0.8739    0.0000 C   0  0  0  0  0  0  0  0  0  0  0  0
   -0.1165    0.2213    0.0000 O   0  0  0  0  0  0  0  0  0  0  0  0
    2.3694   -0.5339    0.0000 N   0  0  0  0  0  0  0  0  0  0  0  0
    2.8054    0.9014    0.0000 C   0  0  0  0  0  0  0  0  0  0  0  0
    2.7242    2.3992    0.0000 C   0  0  0  0  0  0  0  0  0  0  0  0
    3.9807    3.2184    0.0000 C   0  0  0  0  0  0  0  0  0  0  0  0
    3.8995    4.7162    0.0000 C   0  0  0  0  0  0  0  0  0  0  0  0
    5.1561    5.5354    0.0000 N   0  0  0  0  0  0  0  0  0  0  0  0
    5.0749    7.0332    0.0000 C   0  0  0  0  0  0  0  0  0  0  0  0
    6.4219    7.6931    0.0000 N   0  0  0  0  0  0  0  0  0  0  0  0
    3.7372    7.7118    0.0000 N   0  0  0  0  0  0  0  0  0  0  0  0
    4.2663    1.2414    0.0000 C   0  0  0  0  0  0  0  0  0  0  0  0
    5.2913    0.1462    0.0000 O   0  0  0  0  0  0  0  0  0  0  0  0
    4.7023    2.6767    0.0000 N   0  0  0  0  0  0  0  0  0  0  0  0
    6.1633    3.0167    0.0000 C   0  0  0  0  0  0  0  0  0  0  0  0
    7.4198    3.8359    0.0000 C   0  0  0  0  0  0  0  0  0  0  0  0
    7.3386    5.3337    0.0000 C   0  0  0  0  0  0  0  0  0  0  0  0
    8.5951    6.1529    0.0000 C   0  0  0  0  0  0  0  0  0  0  0  0
    8.5140    7.6507    0.0000 C   0  0  0  0  0  0  0  0  0  0  0  0
    9.7705    8.4699    0.0000 N   0  0  0  0  0  0  0  0  0  0  0  0
    7.1882    1.9215    0.0000 C   0  0  0  0  0  0  0  0  0  0  0  0
    6.7522    0.4863    0.0000 O   0  0  0  0  0  0  0  0  0  0  0  0
    8.6492    2.2616    0.0000 N   0  0  0  0  0  0  0  0  0  0  0  0
    9.6741    1.1664    0.0000 C   0  0  0  0  0  0  0  0  0  0  0  0
   10.2627   -0.2133    0.0000 C   0  0  0  0  0  0  0  0  0  0  0  0
   11.7518   -0.3935    0.0000 C   0  0  0  0  0  0  0  0  0  0  0  0
   12.3404   -1.7732    0.0000 C   0  0  0  0  0  0  0  0  0  0  0  0
   13.2128   -0.0534    0.0000 C   0  0  0  0  0  0  0  0  0  0  0  0
   11.1351    1.5064    0.0000 C   0  0  0  0  0  0  0  0  0  0  0  0
   11.5711    2.9417    0.0000 O   0  0  0  0  0  0  0  0  0  0  0  0
   12.1600    0.4112    0.0000 N   0  0  0  0  0  0  0  0  0  0  0  0
   13.6210    0.7513    0.0000 C   0  0  0  0  0  0  0  0  0  0  0  0
   14.8775    1.5705    0.0000 C   0  0  0  0  0  0  0  0  0  0  0  0
   14.7963    3.0683    0.0000 C   0  0  0  0  0  0  0  0  0  0  0  0
   16.0529    3.8875    0.0000 C   0  0  0  0  0  0  0  0  0  0  0  0
   15.9717    5.3853    0.0000 N   0  0  0  0  0  0  0  0  0  0  0  0
   17.3906    3.2089    0.0000 O   0  0  0  0  0  0  0  0  0  0  0  0
   14.6459   -0.3439    0.0000 C   0  0  0  0  0  0  0  0  0  0  0  0
   14.3882   -1.8216    0.0000 O   0  0  0  0  0  0  0  0  0  0  0  0
   16.1069   -0.0039    0.0000 N   0  0  0  0  0  0  0  0  0  0  0  0
   17.1319   -1.0991    0.0000 C   0  0  0  0  0  0  0  0  0  0  0  0
   17.7204   -2.4788    0.0000 C   0  0  0  0  0  0  0  0  0  0  0  0
   19.2096   -2.6589    0.0000 C   0  0  0  0  0  0  0  0  0  0  0  0
   19.7981   -4.0386    0.0000 C   0  0  0  0  0  0  0  0  0  0  0  0
   21.2873   -4.2188    0.0000 N   0  0  0  0  0  0  0  0  0  0  0  0
   21.8759   -5.5985    0.0000 C   0  0  0  0  0  0  0  0  0  0  0  0
   23.3650   -5.7786    0.0000 N   0  0  0  0  0  0  0  0  0  0  0  0
   20.9753   -6.7980    0.0000 N   0  0  0  0  0  0  0  0  0  0  0  0
   18.5928   -0.7590    0.0000 C   0  0  0  0  0  0  0  0  0  0  0  0
   19.0288    0.6762    0.0000 O   0  0  0  0  0  0  0  0  0  0  0  0
   19.6178   -1.8542    0.0000 N   0  0  0  0  0  0  0  0  0  0  0  0
   21.0787   -1.5142    0.0000 C   0  0  0  0  0  0  0  0  0  0  0  0
   22.5679   -1.6943    0.0000 C   0  0  0  0  0  0  0  0  0  0  0  0
   23.1564   -3.0740    0.0000 C   0  0  0  0  0  0  0  0  0  0  0  0
   24.6456   -3.2542    0.0000 C   0  0  0  0  0  0  0  0  0  0  0  0
   25.2341   -4.6339    0.0000 O   0  0  0  0  0  0  0  0  0  0  0  0
   25.5461   -2.0546    0.0000 O   0  0  0  0  0  0  0  0  0  0  0  0
   21.5147   -0.0789    0.0000 C   0  0  0  0  0  0  0  0  0  0  0  0
   20.4897    1.0162    0.0000 O   0  0  0  0  0  0  0  0  0  0  0  0
   22.9756    0.2611    0.0000 N   0  0  0  0  0  0  0  0  0  0  0  0
   23.4116    1.6963    0.0000 C   0  0  0  0  0  0  0  0  0  0  0  0
   23.3304    3.1941    0.0000 C   0  0  0  0  0  0  0  0  0  0  0  0
   24.5870    4.0134    0.0000 C   0  0  0  0  0  0  0  0  0  0  0  0
   24.5058    5.5112    0.0000 C   0  0  0  0  0  0  0  0  0  0  0  0
   25.7623    6.3304    0.0000 N   0  0  0  0  0  0  0  0  0  0  0  0
   23.1681    6.1897    0.0000 O   0  0  0  0  0  0  0  0  0  0  0  0
   24.8726    2.0364    0.0000 C   0  0  0  0  0  0  0  0  0  0  0  0
   25.4803    3.4078    0.0000 O   0  0  0  0  0  0  0  0  0  0  0  0
   25.8975    0.9412    0.0000 O   0  0  0  0  0  0  0  0  0  0  0  0
  -28.3046    6.1689    0.0000 H   0  0  0  0  0  0  0  0  0  0  0  0
  -28.6167    3.5896    0.0000 H   0  0  0  0  0  0  0  0  0  0  0  0
  -26.3081    6.1068    0.0000 H   0  0  0  0  0  0  0  0  0  0  0  0
  -24.7660    4.9491    0.0000 H   0  0  0  0  0  0  0  0  0  0  0  0
  -27.0993    2.8893    0.0000 H   0  0  0  0  0  0  0  0  0  0  0  0
  -25.5572    1.7315    0.0000 H   0  0  0  0  0  0  0  0  0  0  0  0
  -24.1134    1.0951    0.0000 H   0  0  0  0  0  0  0  0  0  0  0  0
  -21.9695    2.9859    0.0000 H   0  0  0  0  0  0  0  0  0  0  0  0
  -21.0183   -0.1260    0.0000 H   0  0  0  0  0  0  0  0  0  0  0  0
  -24.6605    0.3561    0.0000 H   0  0  0  0  0  0  0  0  0  0  0  0
  -25.2250   -1.1051    0.0000 H   0  0  0  0  0  0  0  0  0  0  0  0
  -23.5524   -1.7271    0.0000 H   0  0  0  0  0  0  0  0  0  0  0  0
  -21.8377   -2.8234    0.0000 H   0  0  0  0  0  0  0  0  0  0  0  0
  -20.9654   -1.1036    0.0000 H   0  0  0  0  0  0  0  0  0  0  0  0
  -23.6017   -3.7607    0.0000 H   0  0  0  0  0  0  0  0  0  0  0  0
  -25.1438   -2.6029    0.0000 H   0  0  0  0  0  0  0  0  0  0  0  0
  -24.4523   -0.9796    0.0000 H   0  0  0  0  0  0  0  0  0  0  0  0
  -21.3254    4.2267    0.0000 H   0  0  0  0  0  0  0  0  0  0  0  0
  -18.6324    2.1069    0.0000 H   0  0  0  0  0  0  0  0  0  0  0  0
  -19.2002    6.4809    0.0000 H   0  0  0  0  0  0  0  0  0  0  0  0
  -17.8412    5.3244    0.0000 H   0  0  0  0  0  0  0  0  0  0  0  0
  -21.2524    3.7371    0.0000 H   0  0  0  0  0  0  0  0  0  0  0  0
  -22.8360    6.9045    0.0000 H   0  0  0  0  0  0  0  0  0  0  0  0
  -21.4611    8.0420    0.0000 H   0  0  0  0  0  0  0  0  0  0  0  0
  -19.9713    7.0598    0.0000 H   0  0  0  0  0  0  0  0  0  0  0  0
  -23.4031    5.7866    0.0000 H   0  0  0  0  0  0  0  0  0  0  0  0
  -23.5993    4.1645    0.0000 H   0  0  0  0  0  0  0  0  0  0  0  0
  -21.4999    3.5268    0.0000 H   0  0  0  0  0  0  0  0  0  0  0  0
  -17.6760    0.9640    0.0000 H   0  0  0  0  0  0  0  0  0  0  0  0
  -14.0328    4.3620    0.0000 H   0  0  0  0  0  0  0  0  0  0  0  0
  -15.3115    3.6355    0.0000 H   0  0  0  0  0  0  0  0  0  0  0  0
  -12.4040    4.9625    0.0000 H   0  0  0  0  0  0  0  0  0  0  0  0
  -13.6619    4.6028    0.0000 H   0  0  0  0  0  0  0  0  0  0  0  0
  -10.3345    4.9207    0.0000 H   0  0  0  0  0  0  0  0  0  0  0  0
  -11.8004    5.0408    0.0000 H   0  0  0  0  0  0  0  0  0  0  0  0
   -9.2243    4.8475    0.0000 H   0  0  0  0  0  0  0  0  0  0  0  0
  -16.9254    3.9248    0.0000 H   0  0  0  0  0  0  0  0  0  0  0  0
  -15.3379    4.7537    0.0000 H   0  0  0  0  0  0  0  0  0  0  0  0
  -14.3103    4.0664    0.0000 H   0  0  0  0  0  0  0  0  0  0  0  0
  -17.7805   -0.7308    0.0000 H   0  0  0  0  0  0  0  0  0  0  0  0
  -17.2754   -3.4235    0.0000 H   0  0  0  0  0  0  0  0  0  0  0  0
  -18.7735   -2.7698    0.0000 H   0  0  0  0  0  0  0  0  0  0  0  0
  -18.7337   -0.8418    0.0000 H   0  0  0  0  0  0  0  0  0  0  0  0
  -17.1617   -0.3965    0.0000 H   0  0  0  0  0  0  0  0  0  0  0  0
  -15.8190   -6.0490    0.0000 H   0  0  0  0  0  0  0  0  0  0  0  0
  -13.3989   -7.3330    0.0000 H   0  0  0  0  0  0  0  0  0  0  0  0
  -16.3265   -6.8634    0.0000 H   0  0  0  0  0  0  0  0  0  0  0  0
  -15.6946   -5.3567    0.0000 H   0  0  0  0  0  0  0  0  0  0  0  0
  -16.1398   -8.8522    0.0000 H   0  0  0  0  0  0  0  0  0  0  0  0
  -10.4381   -7.8312    0.0000 H   0  0  0  0  0  0  0  0  0  0  0  0
   -7.8362   -6.5796    0.0000 H   0  0  0  0  0  0  0  0  0  0  0  0
  -10.1177   -8.7358    0.0000 H   0  0  0  0  0  0  0  0  0  0  0  0
  -10.9017   -7.3024    0.0000 H   0  0  0  0  0  0  0  0  0  0  0  0
   -8.4465   -9.8298    0.0000 H   0  0  0  0  0  0  0  0  0  0  0  0
   -6.8053   -8.8173    0.0000 H   0  0  0  0  0  0  0  0  0  0  0  0
   -7.3619   -7.1218    0.0000 H   0  0  0  0  0  0  0  0  0  0  0  0
   -5.6897   -4.7355    0.0000 H   0  0  0  0  0  0  0  0  0  0  0  0
   -4.8701   -1.6611    0.0000 H   0  0  0  0  0  0  0  0  0  0  0  0
   -5.0392   -0.2001    0.0000 H   0  0  0  0  0  0  0  0  0  0  0  0
   -5.0640    0.2414    0.0000 H   0  0  0  0  0  0  0  0  0  0  0  0
   -5.5168    1.4689    0.0000 H   0  0  0  0  0  0  0  0  0  0  0  0
   -5.8102    2.0021    0.0000 H   0  0  0  0  0  0  0  0  0  0  0  0
   -6.7729    3.1140    0.0000 H   0  0  0  0  0  0  0  0  0  0  0  0
   -7.4878    3.9666    0.0000 H   0  0  0  0  0  0  0  0  0  0  0  0
   -3.6834   -2.7925    0.0000 H   0  0  0  0  0  0  0  0  0  0  0  0
   -3.9522   -1.0218    0.0000 H   0  0  0  0  0  0  0  0  0  0  0  0
   -5.1138   -0.5986    0.0000 H   0  0  0  0  0  0  0  0  0  0  0  0
   -3.3027   -1.9579    0.0000 H   0  0  0  0  0  0  0  0  0  0  0  0
   -4.1420   -5.2437    0.0000 H   0  0  0  0  0  0  0  0  0  0  0  0
   -1.2719   -6.8994    0.0000 H   0  0  0  0  0  0  0  0  0  0  0  0
   -0.9498   -5.1442    0.0000 H   0  0  0  0  0  0  0  0  0  0  0  0
   -5.2751   -5.4439    0.0000 H   0  0  0  0  0  0  0  0  0  0  0  0
   -7.0763   -7.8431    0.0000 H   0  0  0  0  0  0  0  0  0  0  0  0
   -5.3106  -11.9822    0.0000 H   0  0  0  0  0  0  0  0  0  0  0  0
   -2.9209  -10.9627    0.0000 H   0  0  0  0  0  0  0  0  0  0  0  0
   -1.1197   -8.5636    0.0000 H   0  0  0  0  0  0  0  0  0  0  0  0
   -2.0135   -1.5540    0.0000 H   0  0  0  0  0  0  0  0  0  0  0  0
    0.3705   -3.8057    0.0000 H   0  0  0  0  0  0  0  0  0  0  0  0
    2.2453   -1.0163    0.0000 H   0  0  0  0  0  0  0  0  0  0  0  0
    4.0125   -4.2508    0.0000 H   0  0  0  0  0  0  0  0  0  0  0  0
    2.6314   -5.3668    0.0000 H   0  0  0  0  0  0  0  0  0  0  0  0
    1.1416   -4.3846    0.0000 H   0  0  0  0  0  0  0  0  0  0  0  0
    4.6791   -1.3300    0.0000 H   0  0  0  0  0  0  0  0  0  0  0  0
    3.1853   -0.6681    0.0000 H   0  0  0  0  0  0  0  0  0  0  0  0
    5.9085   -2.9044    0.0000 H   0  0  0  0  0  0  0  0  0  0  0  0
    5.0361   -4.6241    0.0000 H   0  0  0  0  0  0  0  0  0  0  0  0
    3.4265   -4.3434    0.0000 H   0  0  0  0  0  0  0  0  0  0  0  0
    3.6289   -1.3485    0.0000 H   0  0  0  0  0  0  0  0  0  0  0  0
    1.3162    1.0815    0.0000 H   0  0  0  0  0  0  0  0  0  0  0  0
    1.9718    3.6969    0.0000 H   0  0  0  0  0  0  0  0  0  0  0  0
    1.2632    2.0591    0.0000 H   0  0  0  0  0  0  0  0  0  0  0  0
    5.3893    3.7340    0.0000 H   0  0  0  0  0  0  0  0  0  0  0  0
    5.1482    2.2766    0.0000 H   0  0  0  0  0  0  0  0  0  0  0  0
    3.3110    6.0959    0.0000 H   0  0  0  0  0  0  0  0  0  0  0  0
    2.4080    4.5568    0.0000 H   0  0  0  0  0  0  0  0  0  0  0  0
    6.4011    4.6988    0.0000 H   0  0  0  0  0  0  0  0  0  0  0  0
    6.2502    9.3502    0.0000 H   0  0  0  0  0  0  0  0  0  0  0  0
    7.5966    7.0257    0.0000 H   0  0  0  0  0  0  0  0  0  0  0  0
    3.6560    9.2096    0.0000 H   0  0  0  0  0  0  0  0  0  0  0  0
    2.4806    6.8926    0.0000 H   0  0  0  0  0  0  0  0  0  0  0  0
    3.9728    3.9873    0.0000 H   0  0  0  0  0  0  0  0  0  0  0  0
    5.5747    4.3964    0.0000 H   0  0  0  0  0  0  0  0  0  0  0  0
    8.8807    4.1760    0.0000 H   0  0  0  0  0  0  0  0  0  0  0  0
    8.3247    2.6396    0.0000 H   0  0  0  0  0  0  0  0  0  0  0  0
    6.5862    6.6314    0.0000 H   0  0  0  0  0  0  0  0  0  0  0  0
    6.0034    4.6503    0.0000 H   0  0  0  0  0  0  0  0  0  0  0  0
   10.0866    6.3124    0.0000 H   0  0  0  0  0  0  0  0  0  0  0  0
    9.3475    4.8553    0.0000 H   0  0  0  0  0  0  0  0  0  0  0  0
    7.9254    9.0304    0.0000 H   0  0  0  0  0  0  0  0  0  0  0  0
    7.1054    7.1351    0.0000 H   0  0  0  0  0  0  0  0  0  0  0  0
    9.6893    9.9677    0.0000 H   0  0  0  0  0  0  0  0  0  0  0  0
   11.2314    8.8100    0.0000 H   0  0  0  0  0  0  0  0  0  0  0  0
   10.5229    7.1723    0.0000 H   0  0  0  0  0  0  0  0  0  0  0  0
    9.2569    3.6330    0.0000 H   0  0  0  0  0  0  0  0  0  0  0  0
    8.4176    0.3472    0.0000 H   0  0  0  0  0  0  0  0  0  0  0  0
   10.1607   -1.7099    0.0000 H   0  0  0  0  0  0  0  0  0  0  0  0
    8.8017   -0.5534    0.0000 H   0  0  0  0  0  0  0  0  0  0  0  0
   12.3835    0.9671    0.0000 H   0  0  0  0  0  0  0  0  0  0  0  0
   13.7417   -2.3083    0.0000 H   0  0  0  0  0  0  0  0  0  0  0  0
   12.4216   -3.2710    0.0000 H   0  0  0  0  0  0  0  0  0  0  0  0
   10.9318   -2.2888    0.0000 H   0  0  0  0  0  0  0  0  0  0  0  0
   13.9831    1.2337    0.0000 H   0  0  0  0  0  0  0  0  0  0  0  0
   14.5384   -0.7554    0.0000 H   0  0  0  0  0  0  0  0  0  0  0  0
   13.4759   -1.5302    0.0000 H   0  0  0  0  0  0  0  0  0  0  0  0
   12.0843   -1.0869    0.0000 H   0  0  0  0  0  0  0  0  0  0  0  0
   12.8686    2.0489    0.0000 H   0  0  0  0  0  0  0  0  0  0  0  0
   16.2861    2.0861    0.0000 H   0  0  0  0  0  0  0  0  0  0  0  0
   15.9215    0.4934    0.0000 H   0  0  0  0  0  0  0  0  0  0  0  0
   14.2078    4.4480    0.0000 H   0  0  0  0  0  0  0  0  0  0  0  0
   13.3048    2.9088    0.0000 H   0  0  0  0  0  0  0  0  0  0  0  0
   17.2282    6.2045    0.0000 H   0  0  0  0  0  0  0  0  0  0  0  0
   14.6340    6.0639    0.0000 H   0  0  0  0  0  0  0  0  0  0  0  0
   16.7146    1.3675    0.0000 H   0  0  0  0  0  0  0  0  0  0  0  0
   15.8753   -1.9183    0.0000 H   0  0  0  0  0  0  0  0  0  0  0  0
   17.6184   -3.9753    0.0000 H   0  0  0  0  0  0  0  0  0  0  0  0
   16.2595   -2.8188    0.0000 H   0  0  0  0  0  0  0  0  0  0  0  0
   20.7011   -2.4995    0.0000 H   0  0  0  0  0  0  0  0  0  0  0  0
   19.8412   -1.2984    0.0000 H   0  0  0  0  0  0  0  0  0  0  0  0
   19.8793   -5.5364    0.0000 H   0  0  0  0  0  0  0  0  0  0  0  0
   18.3895   -4.5542    0.0000 H   0  0  0  0  0  0  0  0  0  0  0  0
   22.0349   -2.9184    0.0000 H   0  0  0  0  0  0  0  0  0  0  0  0
   23.9536   -7.1583    0.0000 H   0  0  0  0  0  0  0  0  0  0  0  0
   24.2656   -4.5790    0.0000 H   0  0  0  0  0  0  0  0  0  0  0  0
   21.5639   -8.1777    0.0000 H   0  0  0  0  0  0  0  0  0  0  0  0
   19.4861   -6.6179    0.0000 H   0  0  0  0  0  0  0  0  0  0  0  0
   19.5420   -3.3523    0.0000 H   0  0  0  0  0  0  0  0  0  0  0  0
   21.1599   -3.0120    0.0000 H   0  0  0  0  0  0  0  0  0  0  0  0
   24.0594   -1.5349    0.0000 H   0  0  0  0  0  0  0  0  0  0  0  0
   22.8515   -0.2214    0.0000 H   0  0  0  0  0  0  0  0  0  0  0  0
   23.2376   -4.5718    0.0000 H   0  0  0  0  0  0  0  0  0  0  0  0
   21.6566   -3.0505    0.0000 H   0  0  0  0  0  0  0  0  0  0  0  0
   24.1265   -0.7010    0.0000 H   0  0  0  0  0  0  0  0  0  0  0  0
   21.9225    1.8765    0.0000 H   0  0  0  0  0  0  0  0  0  0  0  0
   22.7419    4.5738    0.0000 H   0  0  0  0  0  0  0  0  0  0  0  0
   21.8695    2.8541    0.0000 H   0  0  0  0  0  0  0  0  0  0  0  0
   26.0479    4.3534    0.0000 H   0  0  0  0  0  0  0  0  0  0  0  0
   25.6310    2.9363    0.0000 H   0  0  0  0  0  0  0  0  0  0  0  0
   25.6811    7.8282    0.0000 H   0  0  0  0  0  0  0  0  0  0  0  0
   27.1001    5.6518    0.0000 H   0  0  0  0  0  0  0  0  0  0  0  0
  1  2  1  0
  2  3  1  0
  3  4  1  0
  4  5  2  0
  4  6  1  0
  6  7  1  0
  7  8  1  0
  8  9  1  0
  8 10  1  0
 10 11  1  0
  7 12  1  0
 12 13  2  0
 12 14  1  0
 14 15  1  0
 15 16  1  0
 16 17  1  0
 17 18  1  0
 17 19  1  0
 15 20  1  0
 20 21  2  0
 20 22  1  0
 23 22  1  1
 23 24  1  0
 24 25  1  0
 25 26  1  0
 26 27  1  0
 23 28  1  0
 23 29  1  0
 29 30  2  0
 29 31  1  0
 31 32  1  0
 32 33  1  0
 32 34  1  0
 34 35  2  0
 34 36  1  0
 36 37  1  0
 37 38  1  0
 38 39  1  0
 37 40  1  0
 40 41  2  0
 40 42  1  0
 42 43  1  0
 43 44  1  0
 44 45  1  0
 43 46  1  0
 46 47  2  0
 46 48  1  0
 48 49  1  0
 49 50  1  0
 50 51  1  0
 51 52  1  0
 52 53  1  0
 49 54  1  0
 49 55  1  1
 55 56  2  0
 55 57  1  0
 57 58  1  0
 58 59  1  0
 59 60  1  0
 60 61  2  0
 61 62  1  0
 62 63  2  0
 63 64  1  0
 63 65  1  0
 65 66  2  0
 58 67  1  0
 67 68  2  0
 67 69  1  0
 69 70  1  0
 70 71  1  0
 71 72  1  0
 71 73  1  0
 73 74  1  0
 70 75  1  0
 75 76  2  0
 75 77  1  0
 77 78  1  0
 78 79  1  0
 79 80  1  0
 80 81  1  0
 81 82  1  0
 82 83  1  0
 83 84  2  3
 83 85  1  0
 78 86  1  0
 86 87  2  0
 86 88  1  0
 88 89  1  0
 89 90  1  0
 90 91  1  0
 91 92  1  0
 92 93  1  0
 93 94  1  0
 89 95  1  0
 95 96  2  0
 95 97  1  0
 97 98  1  0
 98 99  1  0
 99100  1  0
100101  1  0
100102  1  0
 98103  1  0
103104  2  0
103105  1  0
105106  1  0
106107  1  0
107108  1  0
108109  1  0
109110  1  0
109111  2  0
106112  1  0
112113  2  0
112114  1  0
114115  1  0
115116  1  0
116117  1  0
117118  1  0
118119  1  0
119120  1  0
120121  2  3
120122  1  0
115123  1  0
123124  2  0
123125  1  0
125126  1  0
126127  1  0
127128  1  0
128129  1  0
129130  2  0
129131  1  0
126132  1  0
132133  2  0
132134  1  0
134135  1  0
135136  1  0
136137  1  0
137138  1  0
138139  1  0
138140  2  0
135141  1  0
141142  2  0
141143  1  0
 66 60  1  0
 27 53  2  0
  1144  1  0
  1145  1  0
  2146  1  0
  2147  1  0
  3148  1  0
  3149  1  0
  6150  1  0
  7151  1  6
  8152  1  1
  9153  1  0
  9154  1  0
  9155  1  0
 10156  1  0
 10157  1  0
 11158  1  0
 11159  1  0
 11160  1  0
 14161  1  0
 15162  1  1
 16163  1  0
 16164  1  0
 17165  1  0
 18166  1  0
 18167  1  0
 18168  1  0
 19169  1  0
 19170  1  0
 19171  1  0
 22172  1  0
 24173  1  0
 24174  1  0
 25175  1  0
 25176  1  0
 26177  1  0
 26178  1  0
 27179  1  0
 28180  1  0
 28181  1  0
 28182  1  0
 31183  1  0
 32184  1  6
 33185  1  0
 33186  1  0
 33187  1  0
 36188  1  0
 37189  1  6
 38190  1  0
 38191  1  0
 39192  1  0
 42193  1  0
 43194  1  6
 44195  1  0
 44196  1  0
 45197  1  0
 45198  1  0
 45199  1  0
 48200  1  0
 50201  1  0
 50202  1  0
 51203  1  0
 51204  1  0
 52205  1  0
 52206  1  0
 53207  1  0
 54208  1  0
 54209  1  0
 54210  1  0
 57211  1  0
 58212  1  6
 59213  1  0
 59214  1  0
 61215  1  0
 62216  1  0
 64217  1  0
 65218  1  0
 66219  1  0
 69220  1  0
 70221  1  6
 71222  1  1
 72223  1  0
 72224  1  0
 72225  1  0
 73226  1  0
 73227  1  0
 74228  1  0
 74229  1  0
 74230  1  0
 77231  1  0
 78232  1  1
 79233  1  0
 79234  1  0
 80235  1  0
 80236  1  0
 81237  1  0
 81238  1  0
 82239  1  0
 84240  1  0
 84241  1  0
 85242  1  0
 85243  1  0
 88244  1  0
 89245  1  1
 90246  1  0
 90247  1  0
 91248  1  0
 91249  1  0
 92250  1  0
 92251  1  0
 93252  1  0
 93253  1  0
 94254  1  0
 94255  1  0
 94256  1  0
 97257  1  0
 98258  1  6
 99259  1  0
 99260  1  0
100261  1  0
101262  1  0
101263  1  0
101264  1  0
102265  1  0
102266  1  0
102267  1  0
105268  1  0
106269  1  1
107270  1  0
107271  1  0
108272  1  0
108273  1  0
110274  1  0
110275  1  0
114276  1  0
115277  1  6
116278  1  0
116279  1  0
117280  1  0
117281  1  0
118282  1  0
118283  1  0
119284  1  0
121285  1  0
121286  1  0
122287  1  0
122288  1  0
125289  1  0
126290  1  6
127291  1  0
127292  1  0
128293  1  0
128294  1  0
134295  1  0
135296  1  1
136297  1  0
136298  1  0
137299  1  0
137300  1  0
139301  1  0
139302  1  0
M  CHG  5  84   1  94   1 121   1 131  -1 143  -1
M  END
