
     RDKit          2D

386389  0  0  0  0  0  0  0  0999 V2000
  -21.0249   -8.4465    0.0000 N   0  0  0  0  0  0  0  0  0  0  0  0
  -19.5571   -8.1371    0.0000 C   0  0  0  0  0  0  0  0  0  0  0  0
  -19.0912   -6.7113    0.0000 C   0  0  0  0  0  0  0  0  0  0  0  0
  -17.6235   -6.4019    0.0000 C   0  0  0  0  0  0  0  0  0  0  0  0
  -16.7652   -7.6321    0.0000 O   0  0  0  0  0  0  0  0  0  0  0  0
  -17.1576   -4.9761    0.0000 N   0  0  0  0  0  0  0  0  0  0  0  0
  -15.6899   -4.6667    0.0000 C   0  0  0  0  0  0  0  0  0  0  0  0
  -14.5548   -5.6473    0.0000 C   0  0  0  0  0  0  0  0  0  0  0  0
  -13.2546   -6.3953    0.0000 C   0  0  0  0  0  0  0  0  0  0  0  0
  -11.8363   -6.8838    0.0000 C   0  0  0  0  0  0  0  0  0  0  0  0
  -10.3513   -7.0950    0.0000 C   0  0  0  0  0  0  0  0  0  0  0  0
   -8.8531   -7.0214    0.0000 C   0  0  0  0  0  0  0  0  0  0  0  0
   -7.3959   -6.6655    0.0000 C   0  0  0  0  0  0  0  0  0  0  0  0
   -6.0324   -6.0404    0.0000 C   0  0  0  0  0  0  0  0  0  0  0  0
  -16.2386   -6.0627    0.0000 C   0  0  0  0  0  0  0  0  0  0  0  0
  -16.6189   -3.4890    0.0000 C   0  0  0  0  0  0  0  0  0  0  0  0
  -17.9692   -4.1421    0.0000 O   0  0  0  0  0  0  0  0  0  0  0  0
  -17.3082   -2.1568    0.0000 N   0  0  0  0  0  0  0  0  0  0  0  0
  -17.7330   -0.7182    0.0000 C   0  0  0  0  0  0  0  0  0  0  0  0
  -18.8333   -1.7376    0.0000 C   0  0  0  0  0  0  0  0  0  0  0  0
  -20.2664   -1.2944    0.0000 C   0  0  0  0  0  0  0  0  0  0  0  0
  -21.3667   -2.3138    0.0000 C   0  0  0  0  0  0  0  0  0  0  0  0
  -22.7997   -1.8706    0.0000 N   0  0  0  0  0  0  0  0  0  0  0  0
  -23.9001   -2.8900    0.0000 C   0  0  0  0  0  0  0  0  0  0  0  0
  -25.3331   -2.4468    0.0000 N   0  0  0  0  0  0  0  0  0  0  0  0
  -23.5674   -4.3526    0.0000 N   0  0  0  0  0  0  0  0  0  0  0  0
  -17.8778    0.7748    0.0000 C   0  0  0  0  0  0  0  0  0  0  0  0
  -19.3669    0.9554    0.0000 O   0  0  0  0  0  0  0  0  0  0  0  0
  -17.7375    2.2682    0.0000 N   0  0  0  0  0  0  0  0  0  0  0  0
  -17.3170    3.7081    0.0000 C   0  0  0  0  0  0  0  0  0  0  0  0
  -18.7939    3.4454    0.0000 C   0  0  0  0  0  0  0  0  0  0  0  0
  -19.7598    4.5930    0.0000 C   0  0  0  0  0  0  0  0  0  0  0  0
  -21.2366    4.3303    0.0000 C   0  0  0  0  0  0  0  0  0  0  0  0
  -22.2025    5.4780    0.0000 N   0  0  0  0  0  0  0  0  0  0  0  0
  -21.7475    2.9200    0.0000 O   0  0  0  0  0  0  0  0  0  0  0  0
  -16.6317    5.0424    0.0000 C   0  0  0  0  0  0  0  0  0  0  0  0
  -17.7868    5.9994    0.0000 O   0  0  0  0  0  0  0  0  0  0  0  0
  -15.7062    6.2229    0.0000 N   0  0  0  0  0  0  0  0  0  0  0  0
  -14.5741    7.2069    0.0000 C   0  0  0  0  0  0  0  0  0  0  0  0
  -15.9585    7.7843    0.0000 C   0  0  0  0  0  0  0  0  0  0  0  0
  -13.2762    7.9588    0.0000 C   0  0  0  0  0  0  0  0  0  0  0  0
  -13.9014    9.3223    0.0000 O   0  0  0  0  0  0  0  0  0  0  0  0
  -11.8594    8.4516    0.0000 N   0  0  0  0  0  0  0  0  0  0  0  0
  -10.3750    8.6673    0.0000 C   0  0  0  0  0  0  0  0  0  0  0  0
  -11.2275    9.9015    0.0000 C   0  0  0  0  0  0  0  0  0  0  0  0
  -10.5848   11.2569    0.0000 C   0  0  0  0  0  0  0  0  0  0  0  0
  -11.4373   12.4911    0.0000 C   0  0  0  0  0  0  0  0  0  0  0  0
  -10.7946   13.8465    0.0000 N   0  0  0  0  0  0  0  0  0  0  0  0
  -11.6471   15.0807    0.0000 C   0  0  0  0  0  0  0  0  0  0  0  0
  -11.0044   16.4360    0.0000 N   0  0  0  0  0  0  0  0  0  0  0  0
  -13.1422   14.9596    0.0000 N   0  0  0  0  0  0  0  0  0  0  0  0
   -8.8766    8.5982    0.0000 C   0  0  0  0  0  0  0  0  0  0  0  0
   -8.4859   10.0464    0.0000 O   0  0  0  0  0  0  0  0  0  0  0  0
   -7.4184    8.2467    0.0000 N   0  0  0  0  0  0  0  0  0  0  0  0
   -6.0530    7.6256    0.0000 C   0  0  0  0  0  0  0  0  0  0  0  0
   -6.1028    9.1248    0.0000 C   0  0  0  0  0  0  0  0  0  0  0  0
   -4.8294    9.9176    0.0000 C   0  0  0  0  0  0  0  0  0  0  0  0
   -4.8793   11.4167    0.0000 C   0  0  0  0  0  0  0  0  0  0  0  0
   -3.6059   12.2095    0.0000 N   0  0  0  0  0  0  0  0  0  0  0  0
   -3.6557   13.7087    0.0000 C   0  0  0  0  0  0  0  0  0  0  0  0
   -2.3823   14.5014    0.0000 N   0  0  0  0  0  0  0  0  0  0  0  0
   -4.9790   14.4151    0.0000 N   0  0  0  0  0  0  0  0  0  0  0  0
   -4.8298    6.7574    0.0000 C   0  0  0  0  0  0  0  0  0  0  0  0
   -4.2390    7.2926    0.0000 O   0  0  0  0  0  0  0  0  0  0  0  0
   -3.7931    5.6734    0.0000 N   0  0  0  0  0  0  0  0  0  0  0  0
   -2.9802    4.4127    0.0000 C   0  0  0  0  0  0  0  0  0  0  0  0
   -2.2116    5.7008    0.0000 C   0  0  0  0  0  0  0  0  0  0  0  0
   -2.9429    7.0105    0.0000 C   0  0  0  0  0  0  0  0  0  0  0  0
   -2.1743    8.2986    0.0000 N   0  0  0  0  0  0  0  0  0  0  0  0
   -3.7135    7.2145    0.0000 O   0  0  0  0  0  0  0  0  0  0  0  0
   -2.4206    3.0210    0.0000 C   0  0  0  0  0  0  0  0  0  0  0  0
   -1.1275    3.7812    0.0000 O   0  0  0  0  0  0  0  0  0  0  0  0
   -2.1345    1.5485    0.0000 N   0  0  0  0  0  0  0  0  0  0  0  0
   -2.1323    0.0485    0.0000 C   0  0  0  0  0  0  0  0  0  0  0  0
   -2.4139   -1.4248    0.0000 C   0  0  0  0  0  0  0  0  0  0  0  0
   -2.9693   -2.8182    0.0000 C   0  0  0  0  0  0  0  0  0  0  0  0
   -3.7784   -4.0813    0.0000 C   0  0  0  0  0  0  0  0  0  0  0  0
   -4.8119   -5.1684    0.0000 C   0  0  0  0  0  0  0  0  0  0  0  0
   -1.8506    1.5218    0.0000 C   0  0  0  0  0  0  0  0  0  0  0  0
   -1.2952    2.9152    0.0000 C   0  0  0  0  0  0  0  0  0  0  0  0
   -0.4861    4.1783    0.0000 C   0  0  0  0  0  0  0  0  0  0  0  0
    0.5473    5.2655    0.0000 C   0  0  0  0  0  0  0  0  0  0  0  0
   -2.1300   -1.4515    0.0000 C   0  0  0  0  0  0  0  0  0  0  0  0
   -3.6230   -1.5963    0.0000 O   0  0  0  0  0  0  0  0  0  0  0  0
   -1.8439   -2.9239    0.0000 N   0  0  0  0  0  0  0  0  0  0  0  0
   -1.2843   -4.3156    0.0000 C   0  0  0  0  0  0  0  0  0  0  0  0
   -2.0529   -5.6038    0.0000 C   0  0  0  0  0  0  0  0  0  0  0  0
   -1.3216   -6.9135    0.0000 C   0  0  0  0  0  0  0  0  0  0  0  0
   -2.0902   -8.2016    0.0000 C   0  0  0  0  0  0  0  0  0  0  0  0
   -1.3589   -9.5113    0.0000 N   0  0  0  0  0  0  0  0  0  0  0  0
   -2.1275  -10.7994    0.0000 C   0  0  0  0  0  0  0  0  0  0  0  0
   -1.7349  -12.2471    0.0000 N   0  0  0  0  0  0  0  0  0  0  0  0
   -3.6274  -10.7779    0.0000 N   0  0  0  0  0  0  0  0  0  0  0  0
   -0.4715   -5.5763    0.0000 C   0  0  0  0  0  0  0  0  0  0  0  0
   -1.3893   -6.7627    0.0000 O   0  0  0  0  0  0  0  0  0  0  0  0
    0.5653   -6.6603    0.0000 N   0  0  0  0  0  0  0  0  0  0  0  0
    1.7885   -7.5286    0.0000 C   0  0  0  0  0  0  0  0  0  0  0  0
    1.8383   -9.0278    0.0000 C   0  0  0  0  0  0  0  0  0  0  0  0
    0.5649   -9.8205    0.0000 C   0  0  0  0  0  0  0  0  0  0  0  0
    0.6148  -11.3197    0.0000 C   0  0  0  0  0  0  0  0  0  0  0  0
   -0.6586  -12.1124    0.0000 N   0  0  0  0  0  0  0  0  0  0  0  0
   -0.6088  -13.6116    0.0000 C   0  0  0  0  0  0  0  0  0  0  0  0
   -1.8822  -14.4044    0.0000 N   0  0  0  0  0  0  0  0  0  0  0  0
    0.7145  -14.3180    0.0000 N   0  0  0  0  0  0  0  0  0  0  0  0
    3.1539   -8.1497    0.0000 C   0  0  0  0  0  0  0  0  0  0  0  0
    2.8419   -9.6169    0.0000 O   0  0  0  0  0  0  0  0  0  0  0  0
    4.6121   -8.5011    0.0000 N   0  0  0  0  0  0  0  0  0  0  0  0
    6.1105   -8.5702    0.0000 C   0  0  0  0  0  0  0  0  0  0  0  0
    6.9630   -9.8045    0.0000 C   0  0  0  0  0  0  0  0  0  0  0  0
    6.3203  -11.1598    0.0000 C   0  0  0  0  0  0  0  0  0  0  0  0
    7.1727  -12.3940    0.0000 C   0  0  0  0  0  0  0  0  0  0  0  0
    6.5301  -13.7494    0.0000 N   0  0  0  0  0  0  0  0  0  0  0  0
    7.3825  -14.9836    0.0000 C   0  0  0  0  0  0  0  0  0  0  0  0
    6.7399  -16.3390    0.0000 N   0  0  0  0  0  0  0  0  0  0  0  0
    8.8776  -14.8625    0.0000 N   0  0  0  0  0  0  0  0  0  0  0  0
    7.5949   -8.3545    0.0000 C   0  0  0  0  0  0  0  0  0  0  0  0
    8.1257   -9.7575    0.0000 O   0  0  0  0  0  0  0  0  0  0  0  0
    9.0117   -7.8618    0.0000 N   0  0  0  0  0  0  0  0  0  0  0  0
   10.3096   -7.1098    0.0000 C   0  0  0  0  0  0  0  0  0  0  0  0
   11.6940   -7.6873    0.0000 C   0  0  0  0  0  0  0  0  0  0  0  0
   11.8861   -9.1749    0.0000 C   0  0  0  0  0  0  0  0  0  0  0  0
   10.7955  -10.2048    0.0000 C   0  0  0  0  0  0  0  0  0  0  0  0
   11.4379  -11.5602    0.0000 N   0  0  0  0  0  0  0  0  0  0  0  0
   12.9256  -11.3681    0.0000 C   0  0  0  0  0  0  0  0  0  0  0  0
   14.0638  -12.3451    0.0000 C   0  0  0  0  0  0  0  0  0  0  0  0
   15.4790  -11.8478    0.0000 C   0  0  0  0  0  0  0  0  0  0  0  0
   15.7560  -10.3736    0.0000 C   0  0  0  0  0  0  0  0  0  0  0  0
   14.6178   -9.3967    0.0000 C   0  0  0  0  0  0  0  0  0  0  0  0
   13.2026   -9.8939    0.0000 C   0  0  0  0  0  0  0  0  0  0  0  0
   11.4417   -6.1258    0.0000 C   0  0  0  0  0  0  0  0  0  0  0  0
   12.6468   -7.0191    0.0000 O   0  0  0  0  0  0  0  0  0  0  0  0
   12.3672   -4.9454    0.0000 N   0  0  0  0  0  0  0  0  0  0  0  0
   13.0525   -3.6111    0.0000 C   0  0  0  0  0  0  0  0  0  0  0  0
   14.5293   -3.3484    0.0000 C   0  0  0  0  0  0  0  0  0  0  0  0
   15.4952   -4.4960    0.0000 C   0  0  0  0  0  0  0  0  0  0  0  0
   16.9721   -4.2333    0.0000 C   0  0  0  0  0  0  0  0  0  0  0  0
   17.9380   -5.3809    0.0000 N   0  0  0  0  0  0  0  0  0  0  0  0
   19.4148   -5.1182    0.0000 C   0  0  0  0  0  0  0  0  0  0  0  0
   20.3807   -6.2658    0.0000 N   0  0  0  0  0  0  0  0  0  0  0  0
   19.9257   -3.7079    0.0000 N   0  0  0  0  0  0  0  0  0  0  0  0
   13.4730   -2.1712    0.0000 C   0  0  0  0  0  0  0  0  0  0  0  0
   14.9696   -2.2712    0.0000 O   0  0  0  0  0  0  0  0  0  0  0  0
   13.6133   -0.6778    0.0000 N   0  0  0  0  0  0  0  0  0  0  0  0
   13.4685    0.8152    0.0000 C   0  0  0  0  0  0  0  0  0  0  0  0
   14.5688    1.8346    0.0000 C   0  0  0  0  0  0  0  0  0  0  0  0
   16.0018    1.3914    0.0000 C   0  0  0  0  0  0  0  0  0  0  0  0
   17.1022    2.4108    0.0000 C   0  0  0  0  0  0  0  0  0  0  0  0
   18.5352    1.9676    0.0000 O   0  0  0  0  0  0  0  0  0  0  0  0
   16.7695    3.8735    0.0000 O   0  0  0  0  0  0  0  0  0  0  0  0
   13.0437    2.2538    0.0000 C   0  0  0  0  0  0  0  0  0  0  0  0
   14.3568    2.9789    0.0000 O   0  0  0  0  0  0  0  0  0  0  0  0
   12.3543    3.5860    0.0000 N   0  0  0  0  0  0  0  0  0  0  0  0
   11.4253    4.7637    0.0000 C   0  0  0  0  0  0  0  0  0  0  0  0
   10.2902    5.7443    0.0000 C   0  0  0  0  0  0  0  0  0  0  0  0
    8.9901    6.4923    0.0000 C   0  0  0  0  0  0  0  0  0  0  0  0
    7.5718    6.9808    0.0000 C   0  0  0  0  0  0  0  0  0  0  0  0
    6.0868    7.1921    0.0000 C   0  0  0  0  0  0  0  0  0  0  0  0
    4.5886    7.1184    0.0000 C   0  0  0  0  0  0  0  0  0  0  0  0
    3.1314    6.7626    0.0000 C   0  0  0  0  0  0  0  0  0  0  0  0
    1.7679    6.1374    0.0000 C   0  0  0  0  0  0  0  0  0  0  0  0
   12.8931    5.0731    0.0000 C   0  0  0  0  0  0  0  0  0  0  0  0
   11.7999    6.2162    0.0000 C   0  0  0  0  0  0  0  0  0  0  0  0
   11.0153    7.4947    0.0000 O   0  0  0  0  0  0  0  0  0  0  0  0
   13.2450    6.6181    0.0000 N   0  0  0  0  0  0  0  0  0  0  0  0
   13.6196    8.0706    0.0000 C   0  0  0  0  0  0  0  0  0  0  0  0
   13.4747    9.5636    0.0000 C   0  0  0  0  0  0  0  0  0  0  0  0
   14.6953   10.4355    0.0000 C   0  0  0  0  0  0  0  0  0  0  0  0
   14.5505   11.9285    0.0000 C   0  0  0  0  0  0  0  0  0  0  0  0
   15.6556   12.9427    0.0000 N   0  0  0  0  0  0  0  0  0  0  0  0
   13.1851   12.5496    0.0000 O   0  0  0  0  0  0  0  0  0  0  0  0
   15.0647    8.4725    0.0000 C   0  0  0  0  0  0  0  0  0  0  0  0
   16.1354    7.4219    0.0000 O   0  0  0  0  0  0  0  0  0  0  0  0
   15.4393    9.9250    0.0000 N   0  0  0  0  0  0  0  0  0  0  0  0
   16.8844   10.3268    0.0000 C   0  0  0  0  0  0  0  0  0  0  0  0
   18.3799   10.2102    0.0000 C   0  0  0  0  0  0  0  0  0  0  0  0
   19.0266    8.8568    0.0000 C   0  0  0  0  0  0  0  0  0  0  0  0
   20.5221    8.7402    0.0000 C   0  0  0  0  0  0  0  0  0  0  0  0
   21.1688    7.3868    0.0000 N   0  0  0  0  0  0  0  0  0  0  0  0
   22.6643    7.2701    0.0000 C   0  0  0  0  0  0  0  0  0  0  0  0
   23.3110    5.9167    0.0000 N   0  0  0  0  0  0  0  0  0  0  0  0
   23.5130    8.5069    0.0000 N   0  0  0  0  0  0  0  0  0  0  0  0
   17.2590   11.7793    0.0000 C   0  0  0  0  0  0  0  0  0  0  0  0
   18.6444   12.3544    0.0000 O   0  0  0  0  0  0  0  0  0  0  0  0
   16.3244   12.9526    0.0000 O   0  0  0  0  0  0  0  0  0  0  0  0
  -21.4908   -9.8724    0.0000 H   0  0  0  0  0  0  0  0  0  0  0  0
  -22.0267   -7.3302    0.0000 H   0  0  0  0  0  0  0  0  0  0  0  0
  -19.5073   -9.6363    0.0000 H   0  0  0  0  0  0  0  0  0  0  0  0
  -18.0721   -8.3484    0.0000 H   0  0  0  0  0  0  0  0  0  0  0  0
  -20.5763   -6.5001    0.0000 H   0  0  0  0  0  0  0  0  0  0  0  0
  -19.1411   -5.2121    0.0000 H   0  0  0  0  0  0  0  0  0  0  0  0
  -18.2880   -3.9901    0.0000 H   0  0  0  0  0  0  0  0  0  0  0  0
  -14.8294   -7.1219    0.0000 H   0  0  0  0  0  0  0  0  0  0  0  0
  -15.8562   -6.3931    0.0000 H   0  0  0  0  0  0  0  0  0  0  0  0
  -13.2452   -7.8953    0.0000 H   0  0  0  0  0  0  0  0  0  0  0  0
  -14.3914   -7.3739    0.0000 H   0  0  0  0  0  0  0  0  0  0  0  0
  -11.5433   -8.3549    0.0000 H   0  0  0  0  0  0  0  0  0  0  0  0
  -12.7674   -8.0598    0.0000 H   0  0  0  0  0  0  0  0  0  0  0  0
   -9.7851   -8.4840    0.0000 H   0  0  0  0  0  0  0  0  0  0  0  0
  -11.0429   -8.4260    0.0000 H   0  0  0  0  0  0  0  0  0  0  0  0
   -8.0343   -8.2782    0.0000 H   0  0  0  0  0  0  0  0  0  0  0  0
   -9.2803   -8.4592    0.0000 H   0  0  0  0  0  0  0  0  0  0  0  0
   -6.2303   -7.6096    0.0000 H   0  0  0  0  0  0  0  0  0  0  0  0
   -7.5433   -8.1583    0.0000 H   0  0  0  0  0  0  0  0  0  0  0  0
   -5.2805   -7.3383    0.0000 H   0  0  0  0  0  0  0  0  0  0  0  0
  -17.3609   -6.8149    0.0000 H   0  0  0  0  0  0  0  0  0  0  0  0
  -15.7331   -7.5617    0.0000 H   0  0  0  0  0  0  0  0  0  0  0  0
  -14.6604   -6.6347    0.0000 H   0  0  0  0  0  0  0  0  0  0  0  0
  -18.6213   -2.8818    0.0000 H   0  0  0  0  0  0  0  0  0  0  0  0
  -19.0595   -0.0180    0.0000 H   0  0  0  0  0  0  0  0  0  0  0  0
  -19.5187   -3.0719    0.0000 H   0  0  0  0  0  0  0  0  0  0  0  0
  -17.8932   -2.9064    0.0000 H   0  0  0  0  0  0  0  0  0  0  0  0
  -21.4614   -0.3877    0.0000 H   0  0  0  0  0  0  0  0  0  0  0  0
  -19.9242    0.1661    0.0000 H   0  0  0  0  0  0  0  0  0  0  0  0
  -22.0520   -3.6481    0.0000 H   0  0  0  0  0  0  0  0  0  0  0  0
  -20.2911   -3.3593    0.0000 H   0  0  0  0  0  0  0  0  0  0  0  0
  -23.1324   -0.4079    0.0000 H   0  0  0  0  0  0  0  0  0  0  0  0
  -26.4335   -3.4662    0.0000 H   0  0  0  0  0  0  0  0  0  0  0  0
  -25.6658   -0.9841    0.0000 H   0  0  0  0  0  0  0  0  0  0  0  0
  -24.6678   -5.3721    0.0000 H   0  0  0  0  0  0  0  0  0  0  0  0
  -22.1344   -4.7959    0.0000 H   0  0  0  0  0  0  0  0  0  0  0  0
  -19.2341    2.3682    0.0000 H   0  0  0  0  0  0  0  0  0  0  0  0
  -18.0545    5.0143    0.0000 H   0  0  0  0  0  0  0  0  0  0  0  0
  -20.1737    2.8573    0.0000 H   0  0  0  0  0  0  0  0  0  0  0  0
  -18.6349    1.9539    0.0000 H   0  0  0  0  0  0  0  0  0  0  0  0
  -20.2749    6.0018    0.0000 H   0  0  0  0  0  0  0  0  0  0  0  0
  -18.6824    5.6367    0.0000 H   0  0  0  0  0  0  0  0  0  0  0  0
  -23.6793    5.2153    0.0000 H   0  0  0  0  0  0  0  0  0  0  0  0
  -21.6916    6.8883    0.0000 H   0  0  0  0  0  0  0  0  0  0  0  0
  -16.9113    7.1161    0.0000 H   0  0  0  0  0  0  0  0  0  0  0  0
  -14.6715    8.7037    0.0000 H   0  0  0  0  0  0  0  0  0  0  0  0
  -16.1506    9.2720    0.0000 H   0  0  0  0  0  0  0  0  0  0  0  0
  -17.4373    8.0356    0.0000 H   0  0  0  0  0  0  0  0  0  0  0  0
  -16.6312    6.4436    0.0000 H   0  0  0  0  0  0  0  0  0  0  0  0
  -12.3902    9.8545    0.0000 H   0  0  0  0  0  0  0  0  0  0  0  0
   -9.4932    9.8807    0.0000 H   0  0  0  0  0  0  0  0  0  0  0  0
  -12.4506   10.7698    0.0000 H   0  0  0  0  0  0  0  0  0  0  0  0
  -12.5182    9.1373    0.0000 H   0  0  0  0  0  0  0  0  0  0  0  0
   -9.5174   12.3107    0.0000 H   0  0  0  0  0  0  0  0  0  0  0  0
   -9.1879   10.7104    0.0000 H   0  0  0  0  0  0  0  0  0  0  0  0
  -12.6604   13.3593    0.0000 H   0  0  0  0  0  0  0  0  0  0  0  0
  -12.6252   11.5753    0.0000 H   0  0  0  0  0  0  0  0  0  0  0  0
   -9.2995   13.9676    0.0000 H   0  0  0  0  0  0  0  0  0  0  0  0
  -11.8569   17.6703    0.0000 H   0  0  0  0  0  0  0  0  0  0  0  0
   -9.5093   16.5572    0.0000 H   0  0  0  0  0  0  0  0  0  0  0  0
  -13.9946   16.1938    0.0000 H   0  0  0  0  0  0  0  0  0  0  0  0
  -13.7848   13.6042    0.0000 H   0  0  0  0  0  0  0  0  0  0  0  0
   -7.1064    9.7139    0.0000 H   0  0  0  0  0  0  0  0  0  0  0  0
   -4.6551    8.1697    0.0000 H   0  0  0  0  0  0  0  0  0  0  0  0
   -6.6624   10.5165    0.0000 H   0  0  0  0  0  0  0  0  0  0  0  0
   -7.6018    9.1797    0.0000 H   0  0  0  0  0  0  0  0  0  0  0  0
   -3.4104   10.4036    0.0000 H   0  0  0  0  0  0  0  0  0  0  0  0
   -3.9497    8.7026    0.0000 H   0  0  0  0  0  0  0  0  0  0  0  0
   -5.4389   12.8085    0.0000 H   0  0  0  0  0  0  0  0  0  0  0  0
   -6.3738   11.2885    0.0000 H   0  0  0  0  0  0  0  0  0  0  0  0
   -2.2826   11.5031    0.0000 H   0  0  0  0  0  0  0  0  0  0  0  0
   -2.4322   16.0006    0.0000 H   0  0  0  0  0  0  0  0  0  0  0  0
   -1.0591   13.7950    0.0000 H   0  0  0  0  0  0  0  0  0  0  0  0
   -5.0288   15.9143    0.0000 H   0  0  0  0  0  0  0  0  0  0  0  0
   -6.2524   13.6223    0.0000 H   0  0  0  0  0  0  0  0  0  0  0  0
   -2.8752    6.8597    0.0000 H   0  0  0  0  0  0  0  0  0  0  0  0
   -1.4817    4.4792    0.0000 H   0  0  0  0  0  0  0  0  0  0  0  0
   -1.1730    6.7831    0.0000 H   0  0  0  0  0  0  0  0  0  0  0  0
   -0.8730    5.0241    0.0000 H   0  0  0  0  0  0  0  0  0  0  0  0
   -2.7405    9.6877    0.0000 H   0  0  0  0  0  0  0  0  0  0  0  0
   -0.6745    8.2771    0.0000 H   0  0  0  0  0  0  0  0  0  0  0  0
   -0.6415    1.6934    0.0000 H   0  0  0  0  0  0  0  0  0  0  0  0
   -0.9688   -1.0229    0.0000 H   0  0  0  0  0  0  0  0  0  0  0  0
   -1.5556   -2.6550    0.0000 H   0  0  0  0  0  0  0  0  0  0  0  0
   -1.5301   -3.2410    0.0000 H   0  0  0  0  0  0  0  0  0  0  0  0
   -2.1969   -4.1040    0.0000 H   0  0  0  0  0  0  0  0  0  0  0  0
   -2.3714   -4.6012    0.0000 H   0  0  0  0  0  0  0  0  0  0  0  0
   -3.4388   -5.5423    0.0000 H   0  0  0  0  0  0  0  0  0  0  0  0
   -3.9732   -6.4121    0.0000 H   0  0  0  0  0  0  0  0  0  0  0  0
   -3.2958    1.1200    0.0000 H   0  0  0  0  0  0  0  0  0  0  0  0
   -2.7089    2.7520    0.0000 H   0  0  0  0  0  0  0  0  0  0  0  0
   -2.7344    3.3381    0.0000 H   0  0  0  0  0  0  0  0  0  0  0  0
   -2.0677    4.2010    0.0000 H   0  0  0  0  0  0  0  0  0  0  0  0
   -1.8932    4.6983    0.0000 H   0  0  0  0  0  0  0  0  0  0  0  0
   -0.8257    5.6394    0.0000 H   0  0  0  0  0  0  0  0  0  0  0  0
   -0.2913    6.5091    0.0000 H   0  0  0  0  0  0  0  0  0  0  0  0
   -3.1370   -3.6842    0.0000 H   0  0  0  0  0  0  0  0  0  0  0  0
   -2.7828   -4.3822    0.0000 H   0  0  0  0  0  0  0  0  0  0  0  0
   -3.2157   -6.5514    0.0000 H   0  0  0  0  0  0  0  0  0  0  0  0
   -3.3915   -4.9270    0.0000 H   0  0  0  0  0  0  0  0  0  0  0  0
   -0.3145   -8.0251    0.0000 H   0  0  0  0  0  0  0  0  0  0  0  0
    0.0359   -6.2754    0.0000 H   0  0  0  0  0  0  0  0  0  0  0  0
   -3.2530   -9.1492    0.0000 H   0  0  0  0  0  0  0  0  0  0  0  0
   -3.3364   -7.3667    0.0000 H   0  0  0  0  0  0  0  0  0  0  0  0
    0.0911   -9.8951    0.0000 H   0  0  0  0  0  0  0  0  0  0  0  0
   -2.1648  -13.3972    0.0000 H   0  0  0  0  0  0  0  0  0  0  0  0
    0.0771  -12.5789    0.0000 H   0  0  0  0  0  0  0  0  0  0  0  0
   -4.3959  -12.0660    0.0000 H   0  0  0  0  0  0  0  0  0  0  0  0
   -4.3586   -9.4682    0.0000 H   0  0  0  0  0  0  0  0  0  0  0  0
   -0.4153   -7.7954    0.0000 H   0  0  0  0  0  0  0  0  0  0  0  0
    0.4674   -8.2390    0.0000 H   0  0  0  0  0  0  0  0  0  0  0  0
    2.3979  -10.4195    0.0000 H   0  0  0  0  0  0  0  0  0  0  0  0
    3.3373   -9.0827    0.0000 H   0  0  0  0  0  0  0  0  0  0  0  0
   -0.7843  -10.4759    0.0000 H   0  0  0  0  0  0  0  0  0  0  0  0
   -0.1601   -8.5074    0.0000 H   0  0  0  0  0  0  0  0  0  0  0  0
    1.1744  -12.7114    0.0000 H   0  0  0  0  0  0  0  0  0  0  0  0
    2.1093  -11.1915    0.0000 H   0  0  0  0  0  0  0  0  0  0  0  0
   -2.1135  -11.7472    0.0000 H   0  0  0  0  0  0  0  0  0  0  0  0
   -1.8323  -15.9035    0.0000 H   0  0  0  0  0  0  0  0  0  0  0  0
   -3.2054  -13.6980    0.0000 H   0  0  0  0  0  0  0  0  0  0  0  0
    0.7643  -15.8172    0.0000 H   0  0  0  0  0  0  0  0  0  0  0  0
    1.9879  -13.5253    0.0000 H   0  0  0  0  0  0  0  0  0  0  0  0
    4.2214   -9.9493    0.0000 H   0  0  0  0  0  0  0  0  0  0  0  0
    5.2287   -9.7837    0.0000 H   0  0  0  0  0  0  0  0  0  0  0  0
    8.1861  -10.6727    0.0000 H   0  0  0  0  0  0  0  0  0  0  0  0
    8.2537   -9.0402    0.0000 H   0  0  0  0  0  0  0  0  0  0  0  0
    5.2528  -12.2136    0.0000 H   0  0  0  0  0  0  0  0  0  0  0  0
    4.9234  -10.6133    0.0000 H   0  0  0  0  0  0  0  0  0  0  0  0
    8.3959  -13.2623    0.0000 H   0  0  0  0  0  0  0  0  0  0  0  0
    8.3607  -11.4782    0.0000 H   0  0  0  0  0  0  0  0  0  0  0  0
    5.0350  -13.8705    0.0000 H   0  0  0  0  0  0  0  0  0  0  0  0
    7.5923  -17.5732    0.0000 H   0  0  0  0  0  0  0  0  0  0  0  0
    5.2448  -16.4601    0.0000 H   0  0  0  0  0  0  0  0  0  0  0  0
    9.7301  -16.0967    0.0000 H   0  0  0  0  0  0  0  0  0  0  0  0
    9.5203  -13.5072    0.0000 H   0  0  0  0  0  0  0  0  0  0  0  0
    9.4660   -9.2913    0.0000 H   0  0  0  0  0  0  0  0  0  0  0  0
   10.4070   -8.6067    0.0000 H   0  0  0  0  0  0  0  0  0  0  0  0
   13.1728   -7.9385    0.0000 H   0  0  0  0  0  0  0  0  0  0  0  0
   12.3667   -6.3465    0.0000 H   0  0  0  0  0  0  0  0  0  0  0  0
    9.2985  -10.1095    0.0000 H   0  0  0  0  0  0  0  0  0  0  0  0
   10.7190  -12.8767    0.0000 H   0  0  0  0  0  0  0  0  0  0  0  0
   13.7868  -13.8193    0.0000 H   0  0  0  0  0  0  0  0  0  0  0  0
   16.6172  -12.8248    0.0000 H   0  0  0  0  0  0  0  0  0  0  0  0
   17.1712   -9.8764    0.0000 H   0  0  0  0  0  0  0  0  0  0  0  0
   14.8947   -7.9225    0.0000 H   0  0  0  0  0  0  0  0  0  0  0  0
   13.5222   -5.9023    0.0000 H   0  0  0  0  0  0  0  0  0  0  0  0
   13.7900   -4.9173    0.0000 H   0  0  0  0  0  0  0  0  0  0  0  0
   15.8272   -2.5964    0.0000 H   0  0  0  0  0  0  0  0  0  0  0  0
   14.3704   -1.8568    0.0000 H   0  0  0  0  0  0  0  0  0  0  0  0
   16.0104   -5.9048    0.0000 H   0  0  0  0  0  0  0  0  0  0  0  0
   14.4179   -5.5397    0.0000 H   0  0  0  0  0  0  0  0  0  0  0  0
   18.2700   -3.4813    0.0000 H   0  0  0  0  0  0  0  0  0  0  0  0
   16.6325   -2.7722    0.0000 H   0  0  0  0  0  0  0  0  0  0  0  0
   17.4271   -6.7912    0.0000 H   0  0  0  0  0  0  0  0  0  0  0  0
   21.8575   -6.0031    0.0000 H   0  0  0  0  0  0  0  0  0  0  0  0
   19.8698   -7.6761    0.0000 H   0  0  0  0  0  0  0  0  0  0  0  0
   21.4025   -3.4452    0.0000 H   0  0  0  0  0  0  0  0  0  0  0  0
   18.9598   -2.5603    0.0000 H   0  0  0  0  0  0  0  0  0  0  0  0
   15.1024   -0.8584    0.0000 H   0  0  0  0  0  0  0  0  0  0  0  0
   14.7950    0.1151    0.0000 H   0  0  0  0  0  0  0  0  0  0  0  0
   15.4117    3.0754    0.0000 H   0  0  0  0  0  0  0  0  0  0  0  0
   13.6287    3.0035    0.0000 H   0  0  0  0  0  0  0  0  0  0  0  0
   17.1968    0.4848    0.0000 H   0  0  0  0  0  0  0  0  0  0  0  0
   15.6597   -0.0691    0.0000 H   0  0  0  0  0  0  0  0  0  0  0  0
   13.7047    4.2392    0.0000 H   0  0  0  0  0  0  0  0  0  0  0  0
   10.3831    7.2414    0.0000 H   0  0  0  0  0  0  0  0  0  0  0  0
   11.4911    6.6432    0.0000 H   0  0  0  0  0  0  0  0  0  0  0  0
    8.9807    7.9923    0.0000 H   0  0  0  0  0  0  0  0  0  0  0  0
    9.9991    7.6022    0.0000 H   0  0  0  0  0  0  0  0  0  0  0  0
    7.2788    8.4519    0.0000 H   0  0  0  0  0  0  0  0  0  0  0  0
    8.5029    8.1569    0.0000 H   0  0  0  0  0  0  0  0  0  0  0  0
    5.5206    8.5811    0.0000 H   0  0  0  0  0  0  0  0  0  0  0  0
    6.7784    8.5231    0.0000 H   0  0  0  0  0  0  0  0  0  0  0  0
    3.7698    8.3752    0.0000 H   0  0  0  0  0  0  0  0  0  0  0  0
    5.0158    8.5563    0.0000 H   0  0  0  0  0  0  0  0  0  0  0  0
    1.9658    7.7067    0.0000 H   0  0  0  0  0  0  0  0  0  0  0  0
    3.2788    8.2553    0.0000 H   0  0  0  0  0  0  0  0  0  0  0  0
    1.0159    7.4353    0.0000 H   0  0  0  0  0  0  0  0  0  0  0  0
   13.6901    6.3438    0.0000 H   0  0  0  0  0  0  0  0  0  0  0  0
   14.3781    4.8619    0.0000 H   0  0  0  0  0  0  0  0  0  0  0  0
   13.3042    3.6306    0.0000 H   0  0  0  0  0  0  0  0  0  0  0  0
   14.4357    5.7058    0.0000 H   0  0  0  0  0  0  0  0  0  0  0  0
   12.1241    8.1872    0.0000 H   0  0  0  0  0  0  0  0  0  0  0  0
   12.8280   10.9170    0.0000 H   0  0  0  0  0  0  0  0  0  0  0  0
   12.0296    9.1617    0.0000 H   0  0  0  0  0  0  0  0  0  0  0  0
   16.1404   10.8374    0.0000 H   0  0  0  0  0  0  0  0  0  0  0  0
   15.9018    9.5443    0.0000 H   0  0  0  0  0  0  0  0  0  0  0  0
   15.6262   14.2934    0.0000 H   0  0  0  0  0  0  0  0  0  0  0  0
   17.2771   12.5603    0.0000 H   0  0  0  0  0  0  0  0  0  0  0  0
   14.6547   11.2034    0.0000 H   0  0  0  0  0  0  0  0  0  0  0  0
   16.8462    8.8273    0.0000 H   0  0  0  0  0  0  0  0  0  0  0  0
   19.7653   10.7853    0.0000 H   0  0  0  0  0  0  0  0  0  0  0  0
   18.4181   11.7097    0.0000 H   0  0  0  0  0  0  0  0  0  0  0  0
   19.1714    7.3638    0.0000 H   0  0  0  0  0  0  0  0  0  0  0  0
   17.6412    8.2818    0.0000 H   0  0  0  0  0  0  0  0  0  0  0  0
   21.9672    9.1421    0.0000 H   0  0  0  0  0  0  0  0  0  0  0  0
   20.5603   10.2397    0.0000 H   0  0  0  0  0  0  0  0  0  0  0  0
   20.3201    6.1500    0.0000 H   0  0  0  0  0  0  0  0  0  0  0  0
   24.8065    5.8001    0.0000 H   0  0  0  0  0  0  0  0  0  0  0  0
   22.4623    4.6799    0.0000 H   0  0  0  0  0  0  0  0  0  0  0  0
   25.0085    8.3903    0.0000 H   0  0  0  0  0  0  0  0  0  0  0  0
   22.8663    9.8603    0.0000 H   0  0  0  0  0  0  0  0  0  0  0  0
  1  2  1  0
  2  3  1  0
  3  4  1  0
  4  5  2  0
  4  6  1  0
  7  6  1  6
  7  8  1  0
  8  9  1  0
  9 10  1  0
 10 11  1  0
 11 12  1  0
 12 13  1  0
 13 14  1  0
  7 15  1  0
  7 16  1  0
 16 17  2  0
 16 18  1  0
 18 19  1  0
 19 20  1  0
 20 21  1  0
 21 22  1  0
 22 23  1  0
 23 24  1  0
 24 25  2  3
 24 26  1  0
 19 27  1  0
 27 28  2  0
 27 29  1  0
 29 30  1  0
 30 31  1  0
 31 32  1  0
 32 33  1  0
 33 34  1  0
 33 35  2  0
 30 36  1  0
 36 37  2  0
 36 38  1  0
 38 39  1  0
 39 40  1  0
 39 41  1  0
 41 42  2  0
 41 43  1  0
 43 44  1  0
 44 45  1  0
 45 46  1  0
 46 47  1  0
 47 48  1  0
 48 49  1  0
 49 50  2  3
 49 51  1  0
 44 52  1  0
 52 53  2  0
 52 54  1  0
 54 55  1  0
 55 56  1  0
 56 57  1  0
 57 58  1  0
 58 59  1  0
 59 60  1  0
 60 61  2  3
 60 62  1  0
 55 63  1  0
 63 64  2  0
 63 65  1  0
 65 66  1  0
 66 67  1  0
 67 68  1  0
 68 69  1  0
 68 70  2  0
 66 71  1  0
 71 72  2  0
 71 73  1  0
 73 74  1  0
 74 75  1  0
 75 76  1  0
 76 77  1  0
 77 78  1  0
 74 79  1  0
 79 80  1  0
 80 81  1  0
 81 82  1  0
 74 83  1  0
 83 84  2  0
 83 85  1  0
 85 86  1  0
 86 87  1  0
 87 88  1  0
 88 89  1  0
 89 90  1  0
 90 91  1  0
 91 92  2  3
 91 93  1  0
 86 94  1  0
 94 95  2  0
 94 96  1  0
 96 97  1  0
 97 98  1  0
 98 99  1  0
 99100  1  0
100101  1  0
101102  1  0
102103  2  3
102104  1  0
 97105  1  0
105106  2  0
105107  1  0
107108  1  0
108109  1  0
109110  1  0
110111  1  0
111112  1  0
112113  1  0
113114  2  3
113115  1  0
108116  1  0
116117  2  0
116118  1  0
118119  1  0
119120  1  0
120121  1  0
121122  2  0
122123  1  0
123124  1  0
124125  2  0
125126  1  0
126127  2  0
127128  1  0
128129  2  0
119130  1  0
130131  2  0
130132  1  0
132133  1  0
133134  1  0
134135  1  0
135136  1  0
136137  1  0
137138  1  0
138139  2  3
138140  1  0
133141  1  0
141142  2  0
141143  1  0
143144  1  0
144145  1  0
145146  1  0
146147  1  0
147148  2  0
147149  1  0
144150  1  0
150151  2  0
150152  1  0
152153  1  0
153154  1  0
154155  1  0
155156  1  0
156157  1  0
157158  1  0
158159  1  0
159160  1  0
153161  1  0
153162  1  1
162163  2  0
162164  1  0
164165  1  0
165166  1  0
166167  1  0
167168  1  0
168169  1  0
168170  2  0
165171  1  0
171172  2  0
171173  1  0
173174  1  0
174175  1  0
175176  1  0
176177  1  0
177178  1  0
178179  1  0
179180  2  3
179181  1  0
174182  1  0
182183  2  0
182184  1  0
129121  1  0
129124  1  0
 14 78  2  0
 82160  2  0
  1185  1  0
  1186  1  0
  2187  1  0
  2188  1  0
  3189  1  0
  3190  1  0
  6191  1  0
  8192  1  0
  8193  1  0
  9194  1  0
  9195  1  0
 10196  1  0
 10197  1  0
 11198  1  0
 11199  1  0
 12200  1  0
 12201  1  0
 13202  1  0
 13203  1  0
 14204  1  0
 15205  1  0
 15206  1  0
 15207  1  0
 18208  1  0
 19209  1  1
 20210  1  0
 20211  1  0
 21212  1  0
 21213  1  0
 22214  1  0
 22215  1  0
 23216  1  0
 25217  1  0
 25218  1  0
 26219  1  0
 26220  1  0
 29221  1  0
 30222  1  1
 31223  1  0
 31224  1  0
 32225  1  0
 32226  1  0
 34227  1  0
 34228  1  0
 38229  1  0
 39230  1  1
 40231  1  0
 40232  1  0
 40233  1  0
 43234  1  0
 44235  1  1
 45236  1  0
 45237  1  0
 46238  1  0
 46239  1  0
 47240  1  0
 47241  1  0
 48242  1  0
 50243  1  0
 50244  1  0
 51245  1  0
 51246  1  0
 54247  1  0
 55248  1  1
 56249  1  0
 56250  1  0
 57251  1  0
 57252  1  0
 58253  1  0
 58254  1  0
 59255  1  0
 61256  1  0
 61257  1  0
 62258  1  0
 62259  1  0
 65260  1  0
 66261  1  1
 67262  1  0
 67263  1  0
 69264  1  0
 69265  1  0
 73266  1  0
 75267  1  0
 75268  1  0
 76269  1  0
 76270  1  0
 77271  1  0
 77272  1  0
 78273  1  0
 79274  1  0
 79275  1  0
 80276  1  0
 80277  1  0
 81278  1  0
 81279  1  0
 82280  1  0
 85281  1  0
 86282  1  6
 87283  1  0
 87284  1  0
 88285  1  0
 88286  1  0
 89287  1  0
 89288  1  0
 90289  1  0
 92290  1  0
 92291  1  0
 93292  1  0
 93293  1  0
 96294  1  0
 97295  1  6
 98296  1  0
 98297  1  0
 99298  1  0
 99299  1  0
100300  1  0
100301  1  0
101302  1  0
103303  1  0
103304  1  0
104305  1  0
104306  1  0
107307  1  0
108308  1  6
109309  1  0
109310  1  0
110311  1  0
110312  1  0
111313  1  0
111314  1  0
112315  1  0
114316  1  0
114317  1  0
115318  1  0
115319  1  0
118320  1  0
119321  1  6
120322  1  0
120323  1  0
122324  1  0
123325  1  0
125326  1  0
126327  1  0
127328  1  0
128329  1  0
132330  1  0
133331  1  6
134332  1  0
134333  1  0
135334  1  0
135335  1  0
136336  1  0
136337  1  0
137338  1  0
139339  1  0
139340  1  0
140341  1  0
140342  1  0
143343  1  0
144344  1  6
145345  1  0
145346  1  0
146347  1  0
146348  1  0
152349  1  0
154350  1  0
154351  1  0
155352  1  0
155353  1  0
156354  1  0
156355  1  0
157356  1  0
157357  1  0
158358  1  0
158359  1  0
159360  1  0
159361  1  0
160362  1  0
161363  1  0
161364  1  0
161365  1  0
164366  1  0
165367  1  1
166368  1  0
166369  1  0
167370  1  0
167371  1  0
169372  1  0
169373  1  0
173374  1  0
174375  1  6
175376  1  0
175377  1  0
176378  1  0
176379  1  0
177380  1  0
177381  1  0
178382  1  0
180383  1  0
180384  1  0
181385  1  0
181386  1  0
M  CHG  8  25   1  50   1  61   1  92   1 103   1 114   1 139   1 149  -1
M  CHG  2 180   1 184  -1
M  END
