
     RDKit          2D

332333  0  0  0  0  0  0  0  0999 V2000
  -31.1889   -3.4257    0.0000 N   0  0  0  0  0  0  0  0  0  0  0  0
  -30.3171   -2.2050    0.0000 C   0  0  0  0  0  0  0  0  0  0  0  0
  -28.8241   -2.3497    0.0000 C   0  0  0  0  0  0  0  0  0  0  0  0
  -27.9523   -1.1290    0.0000 C   0  0  0  0  0  0  0  0  0  0  0  0
  -28.7353    0.1504    0.0000 O   0  0  0  0  0  0  0  0  0  0  0  0
  -26.4593   -1.2737    0.0000 N   0  0  0  0  0  0  0  0  0  0  0  0
  -25.5875   -0.0530    0.0000 C   0  0  0  0  0  0  0  0  0  0  0  0
  -26.9410    0.5935    0.0000 C   0  0  0  0  0  0  0  0  0  0  0  0
  -27.0578    2.0890    0.0000 C   0  0  0  0  0  0  0  0  0  0  0  0
  -28.4113    2.7356    0.0000 C   0  0  0  0  0  0  0  0  0  0  0  0
  -28.5281    4.2310    0.0000 O   0  0  0  0  0  0  0  0  0  0  0  0
  -29.6480    1.8867    0.0000 O   0  0  0  0  0  0  0  0  0  0  0  0
  -24.3508    0.7958    0.0000 C   0  0  0  0  0  0  0  0  0  0  0  0
  -24.6491    2.2659    0.0000 O   0  0  0  0  0  0  0  0  0  0  0  0
  -22.9973    0.1493    0.0000 N   0  0  0  0  0  0  0  0  0  0  0  0
  -21.7607    0.9981    0.0000 C   0  0  0  0  0  0  0  0  0  0  0  0
  -22.8114    2.0686    0.0000 C   0  0  0  0  0  0  0  0  0  0  0  0
  -22.4097    3.5138    0.0000 C   0  0  0  0  0  0  0  0  0  0  0  0
  -23.4604    4.5843    0.0000 C   0  0  0  0  0  0  0  0  0  0  0  0
  -23.0587    6.0296    0.0000 O   0  0  0  0  0  0  0  0  0  0  0  0
  -24.9128    4.2096    0.0000 O   0  0  0  0  0  0  0  0  0  0  0  0
  -20.3082    1.3728    0.0000 C   0  0  0  0  0  0  0  0  0  0  0  0
  -20.0856    2.8562    0.0000 O   0  0  0  0  0  0  0  0  0  0  0  0
  -19.2575    0.3023    0.0000 N   0  0  0  0  0  0  0  0  0  0  0  0
  -17.8050    0.6770    0.0000 C   0  0  0  0  0  0  0  0  0  0  0  0
  -18.4263    2.0423    0.0000 C   0  0  0  0  0  0  0  0  0  0  0  0
  -17.5545    3.2630    0.0000 C   0  0  0  0  0  0  0  0  0  0  0  0
  -18.1757    4.6283    0.0000 N   0  0  0  0  0  0  0  0  0  0  0  0
  -16.0615    3.1183    0.0000 O   0  0  0  0  0  0  0  0  0  0  0  0
  -16.3120    0.5324    0.0000 C   0  0  0  0  0  0  0  0  0  0  0  0
  -15.5955    1.8502    0.0000 O   0  0  0  0  0  0  0  0  0  0  0  0
  -15.6908   -0.8329    0.0000 N   0  0  0  0  0  0  0  0  0  0  0  0
  -14.1978   -0.9776    0.0000 C   0  0  0  0  0  0  0  0  0  0  0  0
  -14.3146    0.5178    0.0000 C   0  0  0  0  0  0  0  0  0  0  0  0
  -12.8443   -1.6242    0.0000 C   0  0  0  0  0  0  0  0  0  0  0  0
  -11.6076   -0.7753    0.0000 O   0  0  0  0  0  0  0  0  0  0  0  0
  -12.7275   -3.1196    0.0000 N   0  0  0  0  0  0  0  0  0  0  0  0
  -11.3740   -3.7662    0.0000 C   0  0  0  0  0  0  0  0  0  0  0  0
  -12.2458   -4.9869    0.0000 C   0  0  0  0  0  0  0  0  0  0  0  0
  -13.7388   -4.8422    0.0000 C   0  0  0  0  0  0  0  0  0  0  0  0
  -14.6106   -6.0628    0.0000 C   0  0  0  0  0  0  0  0  0  0  0  0
  -16.1036   -5.9182    0.0000 C   0  0  0  0  0  0  0  0  0  0  0  0
  -16.9754   -7.1388    0.0000 N   0  0  0  0  0  0  0  0  0  0  0  0
   -9.8810   -3.9109    0.0000 C   0  0  0  0  0  0  0  0  0  0  0  0
   -9.4308   -5.3417    0.0000 O   0  0  0  0  0  0  0  0  0  0  0  0
   -9.0092   -2.6902    0.0000 N   0  0  0  0  0  0  0  0  0  0  0  0
   -7.5162   -2.8349    0.0000 C   0  0  0  0  0  0  0  0  0  0  0  0
   -7.9179   -4.2801    0.0000 C   0  0  0  0  0  0  0  0  0  0  0  0
   -6.8672   -5.3506    0.0000 C   0  0  0  0  0  0  0  0  0  0  0  0
   -7.2689   -6.7958    0.0000 C   0  0  0  0  0  0  0  0  0  0  0  0
   -6.2182   -7.8663    0.0000 N   0  0  0  0  0  0  0  0  0  0  0  0
   -6.6199   -9.3115    0.0000 C   0  0  0  0  0  0  0  0  0  0  0  0
   -5.5692  -10.3820    0.0000 N   0  0  0  0  0  0  0  0  0  0  0  0
   -8.0724   -9.6862    0.0000 N   0  0  0  0  0  0  0  0  0  0  0  0
   -6.0638   -2.4602    0.0000 C   0  0  0  0  0  0  0  0  0  0  0  0
   -5.0130   -3.5307    0.0000 O   0  0  0  0  0  0  0  0  0  0  0  0
   -5.6620   -1.0150    0.0000 N   0  0  0  0  0  0  0  0  0  0  0  0
   -4.2096   -0.6403    0.0000 C   0  0  0  0  0  0  0  0  0  0  0  0
   -4.8308    0.7250    0.0000 C   0  0  0  0  0  0  0  0  0  0  0  0
   -6.3238    0.8697    0.0000 C   0  0  0  0  0  0  0  0  0  0  0  0
   -6.9451    2.2350    0.0000 C   0  0  0  0  0  0  0  0  0  0  0  0
   -8.4381    2.3797    0.0000 N   0  0  0  0  0  0  0  0  0  0  0  0
   -9.0593    3.7450    0.0000 C   0  0  0  0  0  0  0  0  0  0  0  0
  -10.5523    3.8897    0.0000 N   0  0  0  0  0  0  0  0  0  0  0  0
   -8.1875    4.9656    0.0000 N   0  0  0  0  0  0  0  0  0  0  0  0
   -2.7166   -0.7849    0.0000 C   0  0  0  0  0  0  0  0  0  0  0  0
   -2.0001    0.5329    0.0000 O   0  0  0  0  0  0  0  0  0  0  0  0
   -2.0954   -2.1502    0.0000 N   0  0  0  0  0  0  0  0  0  0  0  0
   -0.6024   -2.2949    0.0000 C   0  0  0  0  0  0  0  0  0  0  0  0
    0.1867   -3.5706    0.0000 C   0  0  0  0  0  0  0  0  0  0  0  0
    1.2029   -4.6739    0.0000 C   0  0  0  0  0  0  0  0  0  0  0  0
    2.4096   -5.5649    0.0000 C   0  0  0  0  0  0  0  0  0  0  0  0
    3.7631   -6.2115    0.0000 C   0  0  0  0  0  0  0  0  0  0  0  0
    5.2145   -6.5903    0.0000 C   0  0  0  0  0  0  0  0  0  0  0  0
    6.7113   -6.6875    0.0000 C   0  0  0  0  0  0  0  0  0  0  0  0
    8.1995   -6.4997    0.0000 C   0  0  0  0  0  0  0  0  0  0  0  0
   -1.5443   -3.4623    0.0000 C   0  0  0  0  0  0  0  0  0  0  0  0
   -1.1357   -0.8929    0.0000 C   0  0  0  0  0  0  0  0  0  0  0  0
   -1.9327   -0.9120    0.0000 O   0  0  0  0  0  0  0  0  0  0  0  0
   -1.3942    0.5846    0.0000 N   0  0  0  0  0  0  0  0  0  0  0  0
   -1.3683    2.0844    0.0000 C   0  0  0  0  0  0  0  0  0  0  0  0
   -2.7236    1.4416    0.0000 C   0  0  0  0  0  0  0  0  0  0  0  0
   -3.9579    2.2939    0.0000 C   0  0  0  0  0  0  0  0  0  0  0  0
   -5.3729    1.7963    0.0000 C   0  0  0  0  0  0  0  0  0  0  0  0
   -6.2835    2.9883    0.0000 N   0  0  0  0  0  0  0  0  0  0  0  0
   -5.4312    4.2226    0.0000 C   0  0  0  0  0  0  0  0  0  0  0  0
   -3.9939    3.7935    0.0000 N   0  0  0  0  0  0  0  0  0  0  0  0
   -1.0590    3.5522    0.0000 C   0  0  0  0  0  0  0  0  0  0  0  0
   -2.4908    3.9996    0.0000 O   0  0  0  0  0  0  0  0  0  0  0  0
   -0.4776    4.9349    0.0000 N   0  0  0  0  0  0  0  0  0  0  0  0
    0.3550    6.1826    0.0000 C   0  0  0  0  0  0  0  0  0  0  0  0
   -1.1326    6.3746    0.0000 C   0  0  0  0  0  0  0  0  0  0  0  0
   -1.7102    7.7589    0.0000 C   0  0  0  0  0  0  0  0  0  0  0  0
   -3.1979    7.9509    0.0000 N   0  0  0  0  0  0  0  0  0  0  0  0
   -0.8001    8.9513    0.0000 O   0  0  0  0  0  0  0  0  0  0  0  0
    1.4087    7.2502    0.0000 C   0  0  0  0  0  0  0  0  0  0  0  0
    0.4462    8.4006    0.0000 O   0  0  0  0  0  0  0  0  0  0  0  0
    2.6454    8.0991    0.0000 N   0  0  0  0  0  0  0  0  0  0  0  0
    4.0204    8.6985    0.0000 C   0  0  0  0  0  0  0  0  0  0  0  0
    2.8727    9.6643    0.0000 C   0  0  0  0  0  0  0  0  0  0  0  0
    5.4840    9.0270    0.0000 C   0  0  0  0  0  0  0  0  0  0  0  0
    5.2962   10.5152    0.0000 O   0  0  0  0  0  0  0  0  0  0  0  0
    6.9833    9.0725    0.0000 N   0  0  0  0  0  0  0  0  0  0  0  0
    8.4642    8.8334    0.0000 C   0  0  0  0  0  0  0  0  0  0  0  0
    8.0208   10.2664    0.0000 C   0  0  0  0  0  0  0  0  0  0  0  0
    9.0401   11.3668    0.0000 C   0  0  0  0  0  0  0  0  0  0  0  0
    8.5967   12.7998    0.0000 C   0  0  0  0  0  0  0  0  0  0  0  0
   10.3743   12.0523    0.0000 C   0  0  0  0  0  0  0  0  0  0  0  0
    9.8730    8.3184    0.0000 C   0  0  0  0  0  0  0  0  0  0  0  0
   10.6797    9.5830    0.0000 O   0  0  0  0  0  0  0  0  0  0  0  0
   11.1589    7.5461    0.0000 N   0  0  0  0  0  0  0  0  0  0  0  0
   12.2754    6.5444    0.0000 C   0  0  0  0  0  0  0  0  0  0  0  0
   12.6771    7.9896    0.0000 C   0  0  0  0  0  0  0  0  0  0  0  0
   14.1296    8.3643    0.0000 C   0  0  0  0  0  0  0  0  0  0  0  0
   14.5313    9.8095    0.0000 C   0  0  0  0  0  0  0  0  0  0  0  0
   15.9837   10.1842    0.0000 O   0  0  0  0  0  0  0  0  0  0  0  0
   13.4806   10.8800    0.0000 O   0  0  0  0  0  0  0  0  0  0  0  0
   13.1822    5.3495    0.0000 C   0  0  0  0  0  0  0  0  0  0  0  0
   14.5445    5.9772    0.0000 O   0  0  0  0  0  0  0  0  0  0  0  0
   13.8464    4.0046    0.0000 N   0  0  0  0  0  0  0  0  0  0  0  0
   14.2441    2.5583    0.0000 C   0  0  0  0  0  0  0  0  0  0  0  0
   15.3634    3.5569    0.0000 C   0  0  0  0  0  0  0  0  0  0  0  0
   16.7878    3.0868    0.0000 C   0  0  0  0  0  0  0  0  0  0  0  0
   17.9071    4.0854    0.0000 C   0  0  0  0  0  0  0  0  0  0  0  0
   19.3316    3.6154    0.0000 N   0  0  0  0  0  0  0  0  0  0  0  0
   20.4509    4.6140    0.0000 C   0  0  0  0  0  0  0  0  0  0  0  0
   21.8753    4.1440    0.0000 N   0  0  0  0  0  0  0  0  0  0  0  0
   20.1457    6.0826    0.0000 N   0  0  0  0  0  0  0  0  0  0  0  0
   14.3609    1.0628    0.0000 C   0  0  0  0  0  0  0  0  0  0  0  0
   15.8463    0.8543    0.0000 O   0  0  0  0  0  0  0  0  0  0  0  0
   14.1925   -0.4277    0.0000 N   0  0  0  0  0  0  0  0  0  0  0  0
   13.7452   -1.8594    0.0000 C   0  0  0  0  0  0  0  0  0  0  0  0
   13.0349   -3.1806    0.0000 C   0  0  0  0  0  0  0  0  0  0  0  0
   12.0875   -4.3435    0.0000 C   0  0  0  0  0  0  0  0  0  0  0  0
   10.9371   -5.3061    0.0000 C   0  0  0  0  0  0  0  0  0  0  0  0
    9.6253   -6.0336    0.0000 C   0  0  0  0  0  0  0  0  0  0  0  0
   14.7562   -2.9675    0.0000 C   0  0  0  0  0  0  0  0  0  0  0  0
   15.2267   -1.6245    0.0000 C   0  0  0  0  0  0  0  0  0  0  0  0
   15.9306   -0.3000    0.0000 O   0  0  0  0  0  0  0  0  0  0  0  0
   16.1709   -2.7900    0.0000 N   0  0  0  0  0  0  0  0  0  0  0  0
   17.6524   -2.5551    0.0000 C   0  0  0  0  0  0  0  0  0  0  0  0
   18.9641   -1.8276    0.0000 C   0  0  0  0  0  0  0  0  0  0  0  0
   20.2500   -2.5999    0.0000 C   0  0  0  0  0  0  0  0  0  0  0  0
   21.5618   -1.8725    0.0000 C   0  0  0  0  0  0  0  0  0  0  0  0
   22.8477   -2.6448    0.0000 N   0  0  0  0  0  0  0  0  0  0  0  0
   24.1595   -1.9173    0.0000 C   0  0  0  0  0  0  0  0  0  0  0  0
   25.4454   -2.6896    0.0000 N   0  0  0  0  0  0  0  0  0  0  0  0
   24.1854   -0.4175    0.0000 N   0  0  0  0  0  0  0  0  0  0  0  0
   18.5966   -3.7206    0.0000 C   0  0  0  0  0  0  0  0  0  0  0  0
   18.0593   -5.1211    0.0000 O   0  0  0  0  0  0  0  0  0  0  0  0
   20.0780   -3.4857    0.0000 N   0  0  0  0  0  0  0  0  0  0  0  0
   21.0223   -4.6512    0.0000 C   0  0  0  0  0  0  0  0  0  0  0  0
   21.5109   -6.0694    0.0000 C   0  0  0  0  0  0  0  0  0  0  0  0
   20.5270   -7.2017    0.0000 C   0  0  0  0  0  0  0  0  0  0  0  0
   21.0156   -8.6198    0.0000 C   0  0  0  0  0  0  0  0  0  0  0  0
   20.0318   -9.7521    0.0000 N   0  0  0  0  0  0  0  0  0  0  0  0
   20.5204  -11.1703    0.0000 C   0  0  0  0  0  0  0  0  0  0  0  0
   19.5365  -12.3025    0.0000 N   0  0  0  0  0  0  0  0  0  0  0  0
   21.9929  -11.4562    0.0000 N   0  0  0  0  0  0  0  0  0  0  0  0
   22.5037   -4.4163    0.0000 C   0  0  0  0  0  0  0  0  0  0  0  0
   23.5830   -5.4580    0.0000 O   0  0  0  0  0  0  0  0  0  0  0  0
   23.3639   -3.1874    0.0000 O   0  0  0  0  0  0  0  0  0  0  0  0
  -32.6819   -3.2810    0.0000 H   0  0  0  0  0  0  0  0  0  0  0  0
  -30.5677   -4.7910    0.0000 H   0  0  0  0  0  0  0  0  0  0  0  0
  -31.6706   -1.5584    0.0000 H   0  0  0  0  0  0  0  0  0  0  0  0
  -29.9154   -0.7598    0.0000 H   0  0  0  0  0  0  0  0  0  0  0  0
  -29.2258   -3.7949    0.0000 H   0  0  0  0  0  0  0  0  0  0  0  0
  -27.4706   -2.9963    0.0000 H   0  0  0  0  0  0  0  0  0  0  0  0
  -25.8381   -2.6390    0.0000 H   0  0  0  0  0  0  0  0  0  0  0  0
  -24.5368   -1.1235    0.0000 H   0  0  0  0  0  0  0  0  0  0  0  0
  -28.4053    0.9191    0.0000 H   0  0  0  0  0  0  0  0  0  0  0  0
  -27.6805   -0.7115    0.0000 H   0  0  0  0  0  0  0  0  0  0  0  0
  -26.6561    3.5342    0.0000 H   0  0  0  0  0  0  0  0  0  0  0  0
  -25.5648    1.9443    0.0000 H   0  0  0  0  0  0  0  0  0  0  0  0
  -22.8806   -1.3462    0.0000 H   0  0  0  0  0  0  0  0  0  0  0  0
  -21.1394   -0.3672    0.0000 H   0  0  0  0  0  0  0  0  0  0  0  0
  -24.0760    2.8754    0.0000 H   0  0  0  0  0  0  0  0  0  0  0  0
  -23.9526    1.0952    0.0000 H   0  0  0  0  0  0  0  0  0  0  0  0
  -21.5379    4.7345    0.0000 H   0  0  0  0  0  0  0  0  0  0  0  0
  -21.0562    2.8673    0.0000 H   0  0  0  0  0  0  0  0  0  0  0  0
  -19.6592   -1.1429    0.0000 H   0  0  0  0  0  0  0  0  0  0  0  0
  -17.6882   -0.8184    0.0000 H   0  0  0  0  0  0  0  0  0  0  0  0
  -19.3387    3.2329    0.0000 H   0  0  0  0  0  0  0  0  0  0  0  0
  -19.8316    1.5179    0.0000 H   0  0  0  0  0  0  0  0  0  0  0  0
  -17.3039    5.8490    0.0000 H   0  0  0  0  0  0  0  0  0  0  0  0
  -19.6687    4.7730    0.0000 H   0  0  0  0  0  0  0  0  0  0  0  0
  -16.5626   -2.0536    0.0000 H   0  0  0  0  0  0  0  0  0  0  0  0
  -14.5995   -2.4228    0.0000 H   0  0  0  0  0  0  0  0  0  0  0  0
  -15.5792    1.3246    0.0000 H   0  0  0  0  0  0  0  0  0  0  0  0
  -13.9129    1.9630    0.0000 H   0  0  0  0  0  0  0  0  0  0  0  0
  -12.8216    0.3732    0.0000 H   0  0  0  0  0  0  0  0  0  0  0  0
  -14.0585   -3.8114    0.0000 H   0  0  0  0  0  0  0  0  0  0  0  0
  -10.9723   -2.3210    0.0000 H   0  0  0  0  0  0  0  0  0  0  0  0
  -12.4684   -6.4703    0.0000 H   0  0  0  0  0  0  0  0  0  0  0  0
  -10.8923   -5.6334    0.0000 H   0  0  0  0  0  0  0  0  0  0  0  0
  -15.0034   -4.0355    0.0000 H   0  0  0  0  0  0  0  0  0  0  0  0
  -13.8818   -3.3490    0.0000 H   0  0  0  0  0  0  0  0  0  0  0  0
  -14.8332   -7.5462    0.0000 H   0  0  0  0  0  0  0  0  0  0  0  0
  -13.3460   -6.8696    0.0000 H   0  0  0  0  0  0  0  0  0  0  0  0
  -17.4571   -5.2716    0.0000 H   0  0  0  0  0  0  0  0  0  0  0  0
  -15.8810   -4.4348    0.0000 H   0  0  0  0  0  0  0  0  0  0  0  0
  -18.4684   -6.9942    0.0000 H   0  0  0  0  0  0  0  0  0  0  0  0
  -17.3771   -8.5840    0.0000 H   0  0  0  0  0  0  0  0  0  0  0  0
  -15.7108   -7.9456    0.0000 H   0  0  0  0  0  0  0  0  0  0  0  0
   -9.6304   -1.3249    0.0000 H   0  0  0  0  0  0  0  0  0  0  0  0
   -7.6330   -1.3394    0.0000 H   0  0  0  0  0  0  0  0  0  0  0  0
   -8.7897   -5.5007    0.0000 H   0  0  0  0  0  0  0  0  0  0  0  0
   -9.3877   -3.9802    0.0000 H   0  0  0  0  0  0  0  0  0  0  0  0
   -5.5137   -5.9972    0.0000 H   0  0  0  0  0  0  0  0  0  0  0  0
   -5.9954   -4.1299    0.0000 H   0  0  0  0  0  0  0  0  0  0  0  0
   -8.1407   -8.0164    0.0000 H   0  0  0  0  0  0  0  0  0  0  0  0
   -8.6912   -6.3190    0.0000 H   0  0  0  0  0  0  0  0  0  0  0  0
   -4.7658   -7.4916    0.0000 H   0  0  0  0  0  0  0  0  0  0  0  0
   -5.9709  -11.8272    0.0000 H   0  0  0  0  0  0  0  0  0  0  0  0
   -4.1168  -10.0073    0.0000 H   0  0  0  0  0  0  0  0  0  0  0  0
   -8.4741  -11.1314    0.0000 H   0  0  0  0  0  0  0  0  0  0  0  0
   -9.1231   -8.6157    0.0000 H   0  0  0  0  0  0  0  0  0  0  0  0
   -6.8354   -0.0805    0.0000 H   0  0  0  0  0  0  0  0  0  0  0  0
   -4.0928   -2.1357    0.0000 H   0  0  0  0  0  0  0  0  0  0  0  0
   -5.1290    2.1951    0.0000 H   0  0  0  0  0  0  0  0  0  0  0  0
   -3.3725    0.3738    0.0000 H   0  0  0  0  0  0  0  0  0  0  0  0
   -7.7763    0.4950    0.0000 H   0  0  0  0  0  0  0  0  0  0  0  0
   -6.7508   -0.5682    0.0000 H   0  0  0  0  0  0  0  0  0  0  0  0
   -7.0619    3.7305    0.0000 H   0  0  0  0  0  0  0  0  0  0  0  0
   -5.7234    3.1054    0.0000 H   0  0  0  0  0  0  0  0  0  0  0  0
   -9.3099    1.1590    0.0000 H   0  0  0  0  0  0  0  0  0  0  0  0
  -11.1735    5.2550    0.0000 H   0  0  0  0  0  0  0  0  0  0  0  0
  -11.4241    2.6690    0.0000 H   0  0  0  0  0  0  0  0  0  0  0  0
   -8.8087    6.3310    0.0000 H   0  0  0  0  0  0  0  0  0  0  0  0
   -6.6945    4.8210    0.0000 H   0  0  0  0  0  0  0  0  0  0  0  0
   -3.1094   -3.2555    0.0000 H   0  0  0  0  0  0  0  0  0  0  0  0
   -0.5173   -4.8951    0.0000 H   0  0  0  0  0  0  0  0  0  0  0  0
   -1.2784   -3.8921    0.0000 H   0  0  0  0  0  0  0  0  0  0  0  0
    0.7623   -6.1077    0.0000 H   0  0  0  0  0  0  0  0  0  0  0  0
   -0.1749   -5.2669    0.0000 H   0  0  0  0  0  0  0  0  0  0  0  0
    2.2483   -7.0562    0.0000 H   0  0  0  0  0  0  0  0  0  0  0  0
    1.1689   -6.4079    0.0000 H   0  0  0  0  0  0  0  0  0  0  0  0
    3.8870   -7.7064    0.0000 H   0  0  0  0  0  0  0  0  0  0  0  0
    2.7043   -7.2741    0.0000 H   0  0  0  0  0  0  0  0  0  0  0  0
    5.6190   -8.0347    0.0000 H   0  0  0  0  0  0  0  0  0  0  0  0
    4.3760   -7.8340    0.0000 H   0  0  0  0  0  0  0  0  0  0  0  0
    7.5405   -7.9375    0.0000 H   0  0  0  0  0  0  0  0  0  0  0  0
    6.1234   -8.0674    0.0000 H   0  0  0  0  0  0  0  0  0  0  0  0
    8.5280   -7.9633    0.0000 H   0  0  0  0  0  0  0  0  0  0  0  0
   -2.8772   -3.6828    0.0000 H   0  0  0  0  0  0  0  0  0  0  0  0
   -1.7042   -5.0362    0.0000 H   0  0  0  0  0  0  0  0  0  0  0  0
   -0.2100   -4.4810    0.0000 H   0  0  0  0  0  0  0  0  0  0  0  0
   -2.8169    0.1094    0.0000 H   0  0  0  0  0  0  0  0  0  0  0  0
   -2.5461    3.0133    0.0000 H   0  0  0  0  0  0  0  0  0  0  0  0
   -3.7773    0.3740    0.0000 H   0  0  0  0  0  0  0  0  0  0  0  0
   -2.0107    0.1218    0.0000 H   0  0  0  0  0  0  0  0  0  0  0  0
   -6.1371    0.5056    0.0000 H   0  0  0  0  0  0  0  0  0  0  0  0
   -7.7472    3.3162    0.0000 H   0  0  0  0  0  0  0  0  0  0  0  0
   -5.9288    5.6377    0.0000 H   0  0  0  0  0  0  0  0  0  0  0  0
   -1.8755    5.4788    0.0000 H   0  0  0  0  0  0  0  0  0  0  0  0
   -0.1336    7.6008    0.0000 H   0  0  0  0  0  0  0  0  0  0  0  0
   -2.6254    6.2270    0.0000 H   0  0  0  0  0  0  0  0  0  0  0  0
   -1.4280    4.9039    0.0000 H   0  0  0  0  0  0  0  0  0  0  0  0
   -3.7755    9.3352    0.0000 H   0  0  0  0  0  0  0  0  0  0  0  0
   -4.1080    6.7585    0.0000 H   0  0  0  0  0  0  0  0  0  0  0  0
    1.7635    9.3124    0.0000 H   0  0  0  0  0  0  0  0  0  0  0  0
    4.3761   10.1558    0.0000 H   0  0  0  0  0  0  0  0  0  0  0  0
    3.1352   11.1412    0.0000 H   0  0  0  0  0  0  0  0  0  0  0  0
    1.5372   10.3472    0.0000 H   0  0  0  0  0  0  0  0  0  0  0  0
    1.8292    8.5868    0.0000 H   0  0  0  0  0  0  0  0  0  0  0  0
    6.8974   10.5700    0.0000 H   0  0  0  0  0  0  0  0  0  0  0  0
    9.6691    9.7268    0.0000 H   0  0  0  0  0  0  0  0  0  0  0  0
    7.1140   11.4613    0.0000 H   0  0  0  0  0  0  0  0  0  0  0  0
    6.5604    9.9241    0.0000 H   0  0  0  0  0  0  0  0  0  0  0  0
   10.2090   10.4269    0.0000 H   0  0  0  0  0  0  0  0  0  0  0  0
    9.4742   14.0163    0.0000 H   0  0  0  0  0  0  0  0  0  0  0  0
    7.6899   13.9947    0.0000 H   0  0  0  0  0  0  0  0  0  0  0  0
    7.1889   12.2821    0.0000 H   0  0  0  0  0  0  0  0  0  0  0  0
   10.6298   13.5304    0.0000 H   0  0  0  0  0  0  0  0  0  0  0  0
   11.8625   12.2402    0.0000 H   0  0  0  0  0  0  0  0  0  0  0  0
   10.8177   10.6194    0.0000 H   0  0  0  0  0  0  0  0  0  0  0  0
   11.8962    8.8524    0.0000 H   0  0  0  0  0  0  0  0  0  0  0  0
   13.7721    6.6445    0.0000 H   0  0  0  0  0  0  0  0  0  0  0  0
   12.7435    9.4881    0.0000 H   0  0  0  0  0  0  0  0  0  0  0  0
   11.2635    8.4912    0.0000 H   0  0  0  0  0  0  0  0  0  0  0  0
   15.6226    8.2196    0.0000 H   0  0  0  0  0  0  0  0  0  0  0  0
   14.6048    6.9416    0.0000 H   0  0  0  0  0  0  0  0  0  0  0  0
   15.1729    4.7049    0.0000 H   0  0  0  0  0  0  0  0  0  0  0  0
   15.5573    1.8333    0.0000 H   0  0  0  0  0  0  0  0  0  0  0  0
   16.0736    4.8781    0.0000 H   0  0  0  0  0  0  0  0  0  0  0  0
   14.4453    4.7431    0.0000 H   0  0  0  0  0  0  0  0  0  0  0  0
   17.9656    2.1579    0.0000 H   0  0  0  0  0  0  0  0  0  0  0  0
   16.4184    1.6330    0.0000 H   0  0  0  0  0  0  0  0  0  0  0  0
   18.6174    5.4066    0.0000 H   0  0  0  0  0  0  0  0  0  0  0  0
   16.8513    5.1509    0.0000 H   0  0  0  0  0  0  0  0  0  0  0  0
   19.6367    2.1468    0.0000 H   0  0  0  0  0  0  0  0  0  0  0  0
   22.9946    5.1426    0.0000 H   0  0  0  0  0  0  0  0  0  0  0  0
   22.1805    2.6753    0.0000 H   0  0  0  0  0  0  0  0  0  0  0  0
   21.2650    7.0812    0.0000 H   0  0  0  0  0  0  0  0  0  0  0  0
   18.7212    6.5526    0.0000 H   0  0  0  0  0  0  0  0  0  0  0  0
   15.6871   -0.5557    0.0000 H   0  0  0  0  0  0  0  0  0  0  0  0
   14.5169   -3.4127    0.0000 H   0  0  0  0  0  0  0  0  0  0  0  0
   13.6561   -4.5459    0.0000 H   0  0  0  0  0  0  0  0  0  0  0  0
   13.4262   -5.0201    0.0000 H   0  0  0  0  0  0  0  0  0  0  0  0
   12.6142   -5.7480    0.0000 H   0  0  0  0  0  0  0  0  0  0  0  0
   12.2266   -6.0723    0.0000 H   0  0  0  0  0  0  0  0  0  0  0  0
   11.0064   -6.8045    0.0000 H   0  0  0  0  0  0  0  0  0  0  0  0
   10.2248   -7.4086    0.0000 H   0  0  0  0  0  0  0  0  0  0  0  0
   14.3691   -4.5879    0.0000 H   0  0  0  0  0  0  0  0  0  0  0  0
   15.7218   -4.0607    0.0000 H   0  0  0  0  0  0  0  0  0  0  0  0
   15.8707   -2.2637    0.0000 H   0  0  0  0  0  0  0  0  0  0  0  0
   15.8083   -4.2456    0.0000 H   0  0  0  0  0  0  0  0  0  0  0  0
   17.1637   -1.1369    0.0000 H   0  0  0  0  0  0  0  0  0  0  0  0
   19.8027   -0.5839    0.0000 H   0  0  0  0  0  0  0  0  0  0  0  0
   18.0199   -0.6621    0.0000 H   0  0  0  0  0  0  0  0  0  0  0  0
   21.1943   -3.7655    0.0000 H   0  0  0  0  0  0  0  0  0  0  0  0
   19.9131   -4.0616    0.0000 H   0  0  0  0  0  0  0  0  0  0  0  0
   22.5457   -0.7402    0.0000 H   0  0  0  0  0  0  0  0  0  0  0  0
   20.7667   -0.6005    0.0000 H   0  0  0  0  0  0  0  0  0  0  0  0
   23.1855   -4.1062    0.0000 H   0  0  0  0  0  0  0  0  0  0  0  0
   26.7572   -1.9621    0.0000 H   0  0  0  0  0  0  0  0  0  0  0  0
   25.4195   -4.1894    0.0000 H   0  0  0  0  0  0  0  0  0  0  0  0
   25.4972    0.3100    0.0000 H   0  0  0  0  0  0  0  0  0  0  0  0
   22.8995    0.3548    0.0000 H   0  0  0  0  0  0  0  0  0  0  0  0
   20.9382   -2.2568    0.0000 H   0  0  0  0  0  0  0  0  0  0  0  0
   19.6316   -5.2134    0.0000 H   0  0  0  0  0  0  0  0  0  0  0  0
   22.5901   -7.1112    0.0000 H   0  0  0  0  0  0  0  0  0  0  0  0
   22.9016   -5.5073    0.0000 H   0  0  0  0  0  0  0  0  0  0  0  0
   19.2152   -7.9291    0.0000 H   0  0  0  0  0  0  0  0  0  0  0  0
   19.4478   -6.1599    0.0000 H   0  0  0  0  0  0  0  0  0  0  0  0
   21.9599   -9.7854    0.0000 H   0  0  0  0  0  0  0  0  0  0  0  0
   22.4063   -8.0577    0.0000 H   0  0  0  0  0  0  0  0  0  0  0  0
   18.5593   -9.4662    0.0000 H   0  0  0  0  0  0  0  0  0  0  0  0
   20.0252  -13.7207    0.0000 H   0  0  0  0  0  0  0  0  0  0  0  0
   18.0640  -12.0166    0.0000 H   0  0  0  0  0  0  0  0  0  0  0  0
   22.4815  -12.8744    0.0000 H   0  0  0  0  0  0  0  0  0  0  0  0
   22.9768  -10.3240    0.0000 H   0  0  0  0  0  0  0  0  0  0  0  0
  1  2  1  0
  2  3  1  0
  3  4  1  0
  4  5  2  0
  4  6  1  0
  6  7  1  0
  7  8  1  0
  8  9  1  0
  9 10  1  0
 10 11  2  0
 10 12  1  0
  7 13  1  0
 13 14  2  0
 13 15  1  0
 15 16  1  0
 16 17  1  0
 17 18  1  0
 18 19  1  0
 19 20  2  0
 19 21  1  0
 16 22  1  0
 22 23  2  0
 22 24  1  0
 24 25  1  0
 25 26  1  0
 26 27  1  0
 27 28  1  0
 27 29  2  0
 25 30  1  0
 30 31  2  0
 30 32  1  0
 32 33  1  0
 33 34  1  0
 33 35  1  0
 35 36  2  0
 35 37  1  0
 37 38  1  0
 38 39  1  0
 39 40  1  0
 40 41  1  0
 41 42  1  0
 42 43  1  0
 38 44  1  0
 44 45  2  0
 44 46  1  0
 46 47  1  0
 47 48  1  0
 48 49  1  0
 49 50  1  0
 50 51  1  0
 51 52  1  0
 52 53  2  3
 52 54  1  0
 47 55  1  0
 55 56  2  0
 55 57  1  0
 57 58  1  0
 58 59  1  0
 59 60  1  0
 60 61  1  0
 61 62  1  0
 62 63  1  0
 63 64  2  3
 63 65  1  0
 58 66  1  0
 66 67  2  0
 66 68  1  0
 69 68  1  1
 69 70  1  0
 70 71  1  0
 71 72  1  0
 72 73  1  0
 73 74  1  0
 74 75  1  0
 75 76  1  0
 69 77  1  0
 69 78  1  0
 78 79  2  0
 78 80  1  0
 80 81  1  0
 81 82  1  0
 82 83  1  0
 83 84  2  0
 84 85  1  0
 85 86  1  0
 86 87  2  0
 81 88  1  0
 88 89  2  0
 88 90  1  0
 90 91  1  0
 91 92  1  0
 92 93  1  0
 93 94  1  0
 93 95  2  0
 91 96  1  0
 96 97  2  0
 96 98  1  0
 98 99  1  0
 99100  1  0
 99101  1  0
101102  2  0
101103  1  0
103104  1  0
104105  1  0
105106  1  0
106107  1  0
106108  1  0
104109  1  0
109110  2  0
109111  1  0
111112  1  0
112113  1  0
113114  1  0
114115  1  0
115116  2  0
115117  1  0
112118  1  0
118119  2  0
118120  1  0
120121  1  0
121122  1  0
122123  1  0
123124  1  0
124125  1  0
125126  1  0
126127  2  3
126128  1  0
121129  1  0
129130  2  0
129131  1  0
131132  1  0
132133  1  0
133134  1  0
134135  1  0
135136  1  0
132137  1  0
132138  1  6
138139  2  0
138140  1  0
140141  1  0
141142  1  0
142143  1  0
143144  1  0
144145  1  0
145146  1  0
146147  2  3
146148  1  0
141149  1  0
149150  2  0
149151  1  0
151152  1  0
152153  1  0
153154  1  0
154155  1  0
155156  1  0
156157  1  0
157158  2  3
157159  1  0
152160  1  0
160161  2  0
160162  1  0
 87 83  1  0
 76136  2  0
  1163  1  0
  1164  1  0
  2165  1  0
  2166  1  0
  3167  1  0
  3168  1  0
  6169  1  0
  7170  1  1
  8171  1  0
  8172  1  0
  9173  1  0
  9174  1  0
 15175  1  0
 16176  1  1
 17177  1  0
 17178  1  0
 18179  1  0
 18180  1  0
 24181  1  0
 25182  1  1
 26183  1  0
 26184  1  0
 28185  1  0
 28186  1  0
 32187  1  0
 33188  1  1
 34189  1  0
 34190  1  0
 34191  1  0
 37192  1  0
 38193  1  6
 39194  1  0
 39195  1  0
 40196  1  0
 40197  1  0
 41198  1  0
 41199  1  0
 42200  1  0
 42201  1  0
 43202  1  0
 43203  1  0
 43204  1  0
 46205  1  0
 47206  1  6
 48207  1  0
 48208  1  0
 49209  1  0
 49210  1  0
 50211  1  0
 50212  1  0
 51213  1  0
 53214  1  0
 53215  1  0
 54216  1  0
 54217  1  0
 57218  1  0
 58219  1  1
 59220  1  0
 59221  1  0
 60222  1  0
 60223  1  0
 61224  1  0
 61225  1  0
 62226  1  0
 64227  1  0
 64228  1  0
 65229  1  0
 65230  1  0
 68231  1  0
 70232  1  0
 70233  1  0
 71234  1  0
 71235  1  0
 72236  1  0
 72237  1  0
 73238  1  0
 73239  1  0
 74240  1  0
 74241  1  0
 75242  1  0
 75243  1  0
 76244  1  0
 77245  1  0
 77246  1  0
 77247  1  0
 80248  1  0
 81249  1  1
 82250  1  0
 82251  1  0
 84252  1  0
 85253  1  0
 86254  1  0
 90255  1  0
 91256  1  1
 92257  1  0
 92258  1  0
 94259  1  0
 94260  1  0
 98261  1  0
 99262  1  1
100263  1  0
100264  1  0
100265  1  0
103266  1  0
104267  1  1
105268  1  0
105269  1  0
106270  1  0
107271  1  0
107272  1  0
107273  1  0
108274  1  0
108275  1  0
108276  1  0
111277  1  0
112278  1  1
113279  1  0
113280  1  0
114281  1  0
114282  1  0
120283  1  0
121284  1  1
122285  1  0
122286  1  0
123287  1  0
123288  1  0
124289  1  0
124290  1  0
125291  1  0
127292  1  0
127293  1  0
128294  1  0
128295  1  0
131296  1  0
133297  1  0
133298  1  0
134299  1  0
134300  1  0
135301  1  0
135302  1  0
136303  1  0
137304  1  0
137305  1  0
137306  1  0
140307  1  0
141308  1  1
142309  1  0
142310  1  0
143311  1  0
143312  1  0
144313  1  0
144314  1  0
145315  1  0
147316  1  0
147317  1  0
148318  1  0
148319  1  0
151320  1  0
152321  1  6
153322  1  0
153323  1  0
154324  1  0
154325  1  0
155326  1  0
155327  1  0
156328  1  0
158329  1  0
158330  1  0
159331  1  0
159332  1  0
M  CHG  8  12  -1  21  -1  43   1  53   1  64   1 117  -1 127   1 147   1
M  CHG  2 158   1 162  -1
M  END
