
     RDKit          2D

303310  0  0  0  0  0  0  0  0999 V2000
   20.1109   -3.5419    0.0000 C   0  0  0  0  0  0  0  0  0  0  0  0
   21.4526   -2.8714    0.0000 N   0  0  0  0  0  0  0  0  0  0  0  0
   22.7042   -3.6981    0.0000 C   0  0  0  0  0  0  0  0  0  0  0  0
   22.6141   -5.1954    0.0000 C   0  0  0  0  0  0  0  0  0  0  0  0
   23.8657   -6.0222    0.0000 C   0  0  0  0  0  0  0  0  0  0  0  0
   25.2075   -5.3516    0.0000 C   0  0  0  0  0  0  0  0  0  0  0  0
   25.2976   -3.8543    0.0000 C   0  0  0  0  0  0  0  0  0  0  0  0
   24.0460   -3.0276    0.0000 C   0  0  0  0  0  0  0  0  0  0  0  0
   26.7495   -3.4774    0.0000 C   0  0  0  0  0  0  0  0  0  0  0  0
   27.5566   -4.7417    0.0000 O   0  0  0  0  0  0  0  0  0  0  0  0
   26.6036   -5.9001    0.0000 C   0  0  0  0  0  0  0  0  0  0  0  0
   26.9805   -7.3519    0.0000 O   0  0  0  0  0  0  0  0  0  0  0  0
   28.2328   -3.2543    0.0000 C   0  0  0  0  0  0  0  0  0  0  0  0
   28.7813   -1.8582    0.0000 C   0  0  0  0  0  0  0  0  0  0  0  0
   30.2646   -1.6351    0.0000 C   0  0  0  0  0  0  0  0  0  0  0  0
   31.1994   -2.8081    0.0000 C   0  0  0  0  0  0  0  0  0  0  0  0
   30.6510   -4.2042    0.0000 C   0  0  0  0  0  0  0  0  0  0  0  0
   29.1677   -4.4273    0.0000 C   0  0  0  0  0  0  0  0  0  0  0  0
   32.6828   -2.5850    0.0000 O   0  0  0  0  0  0  0  0  0  0  0  0
   27.8464   -0.6851    0.0000 O   0  0  0  0  0  0  0  0  0  0  0  0
   26.3631   -0.9082    0.0000 C   0  0  0  0  0  0  0  0  0  0  0  0
   25.8146   -2.3044    0.0000 C   0  0  0  0  0  0  0  0  0  0  0  0
   24.5873   -1.8759    0.0000 C   0  0  0  0  0  0  0  0  0  0  0  0
   24.0887   -1.2503    0.0000 C   0  0  0  0  0  0  0  0  0  0  0  0
   24.3812   -0.5057    0.0000 C   0  0  0  0  0  0  0  0  0  0  0  0
   25.1723   -0.3867    0.0000 C   0  0  0  0  0  0  0  0  0  0  0  0
   23.0100    1.2148    0.0000 O   0  0  0  0  0  0  0  0  0  0  0  0
   20.0207   -5.0392    0.0000 S   0  0  0  0  0  0  0  0  0  0  0  0
   18.8593   -2.7152    0.0000 N   0  0  0  0  0  0  0  0  0  0  0  0
   17.5175   -3.3858    0.0000 C   0  0  0  0  0  0  0  0  0  0  0  0
   16.2659   -2.5590    0.0000 C   0  0  0  0  0  0  0  0  0  0  0  0
   14.9241   -3.2296    0.0000 C   0  0  0  0  0  0  0  0  0  0  0  0
   15.0702   -4.0132    0.0000 O   0  0  0  0  0  0  0  0  0  0  0  0
   13.6725   -2.4028    0.0000 N   0  0  0  0  0  0  0  0  0  0  0  0
   12.3307   -3.0734    0.0000 C   0  0  0  0  0  0  0  0  0  0  0  0
   13.2241   -4.2783    0.0000 C   0  0  0  0  0  0  0  0  0  0  0  0
   14.7143   -4.1071    0.0000 C   0  0  0  0  0  0  0  0  0  0  0  0
   15.6077   -5.3121    0.0000 N   0  0  0  0  0  0  0  0  0  0  0  0
   15.6264   -2.9163    0.0000 O   0  0  0  0  0  0  0  0  0  0  0  0
   10.8405   -3.2446    0.0000 C   0  0  0  0  0  0  0  0  0  0  0  0
   10.5944   -4.7242    0.0000 O   0  0  0  0  0  0  0  0  0  0  0  0
    9.9472   -2.0396    0.0000 N   0  0  0  0  0  0  0  0  0  0  0  0
    8.4570   -2.2108    0.0000 C   0  0  0  0  0  0  0  0  0  0  0  0
    8.8843   -3.6487    0.0000 C   0  0  0  0  0  0  0  0  0  0  0  0
   10.3432   -3.9975    0.0000 C   0  0  0  0  0  0  0  0  0  0  0  0
   10.7706   -5.4353    0.0000 C   0  0  0  0  0  0  0  0  0  0  0  0
   12.1761   -5.9593    0.0000 N   0  0  0  0  0  0  0  0  0  0  0  0
    9.7391   -6.5243    0.0000 O   0  0  0  0  0  0  0  0  0  0  0  0
    6.9981   -1.8620    0.0000 C   0  0  0  0  0  0  0  0  0  0  0  0
    6.2608   -3.1683    0.0000 O   0  0  0  0  0  0  0  0  0  0  0  0
    6.5707   -0.4242    0.0000 N   0  0  0  0  0  0  0  0  0  0  0  0
    5.1119   -0.0754    0.0000 C   0  0  0  0  0  0  0  0  0  0  0  0
    5.0217   -1.5727    0.0000 C   0  0  0  0  0  0  0  0  0  0  0  0
    6.2733   -2.3994    0.0000 C   0  0  0  0  0  0  0  0  0  0  0  0
    6.1831   -3.8967    0.0000 C   0  0  0  0  0  0  0  0  0  0  0  0
    7.7322   -2.7482    0.0000 C   0  0  0  0  0  0  0  0  0  0  0  0
    3.8603    0.7514    0.0000 C   0  0  0  0  0  0  0  0  0  0  0  0
    2.7206   -0.2239    0.0000 O   0  0  0  0  0  0  0  0  0  0  0  0
    3.9504    2.2487    0.0000 N   0  0  0  0  0  0  0  0  0  0  0  0
    2.6988    3.0754    0.0000 C   0  0  0  0  0  0  0  0  0  0  0  0
    2.5139    1.5868    0.0000 C   0  0  0  0  0  0  0  0  0  0  0  0
    2.0505    0.1602    0.0000 C   0  0  0  0  0  0  0  0  0  0  0  0
    1.3256   -1.1530    0.0000 C   0  0  0  0  0  0  0  0  0  0  0  0
    0.3652   -2.3053    0.0000 C   0  0  0  0  0  0  0  0  0  0  0  0
   -0.7958   -3.2549    0.0000 C   0  0  0  0  0  0  0  0  0  0  0  0
   -2.1157   -3.9677    0.0000 C   0  0  0  0  0  0  0  0  0  0  0  0
   -3.5465   -4.4178    0.0000 C   0  0  0  0  0  0  0  0  0  0  0  0
    3.9954    3.8297    0.0000 C   0  0  0  0  0  0  0  0  0  0  0  0
    2.5987    4.5720    0.0000 C   0  0  0  0  0  0  0  0  0  0  0  0
    4.0386    4.9926    0.0000 O   0  0  0  0  0  0  0  0  0  0  0  0
    2.2172    6.0227    0.0000 N   0  0  0  0  0  0  0  0  0  0  0  0
    1.5680    7.3750    0.0000 C   0  0  0  0  0  0  0  0  0  0  0  0
    2.2510    8.7105    0.0000 C   0  0  0  0  0  0  0  0  0  0  0  0
    3.7490    8.7868    0.0000 C   0  0  0  0  0  0  0  0  0  0  0  0
    4.4319   10.1223    0.0000 C   0  0  0  0  0  0  0  0  0  0  0  0
    5.9300   10.1987    0.0000 N   0  0  0  0  0  0  0  0  0  0  0  0
    6.6129   11.5342    0.0000 C   0  0  0  0  0  0  0  0  0  0  0  0
    8.1110   11.6105    0.0000 N   0  0  0  0  0  0  0  0  0  0  0  0
    5.7978   12.7934    0.0000 N   0  0  0  0  0  0  0  0  0  0  0  0
    0.6747    8.5799    0.0000 C   0  0  0  0  0  0  0  0  0  0  0  0
    1.6586    9.7121    0.0000 O   0  0  0  0  0  0  0  0  0  0  0  0
   -0.4306    9.5940    0.0000 N   0  0  0  0  0  0  0  0  0  0  0  0
   -1.7078   10.3806    0.0000 C   0  0  0  0  0  0  0  0  0  0  0  0
   -1.8553   11.8734    0.0000 C   0  0  0  0  0  0  0  0  0  0  0  0
   -0.6363   12.7475    0.0000 O   0  0  0  0  0  0  0  0  0  0  0  0
   -3.1108   10.9113    0.0000 C   0  0  0  0  0  0  0  0  0  0  0  0
   -2.8952   12.3957    0.0000 O   0  0  0  0  0  0  0  0  0  0  0  0
   -4.5888   11.1669    0.0000 N   0  0  0  0  0  0  0  0  0  0  0  0
   -6.0886   11.1381    0.0000 C   0  0  0  0  0  0  0  0  0  0  0  0
   -7.0197   12.3141    0.0000 C   0  0  0  0  0  0  0  0  0  0  0  0
   -6.4668   13.7085    0.0000 C   0  0  0  0  0  0  0  0  0  0  0  0
   -4.9828   13.9269    0.0000 C   0  0  0  0  0  0  0  0  0  0  0  0
   -4.4299   15.3213    0.0000 C   0  0  0  0  0  0  0  0  0  0  0  0
   -5.3611   16.4973    0.0000 C   0  0  0  0  0  0  0  0  0  0  0  0
   -6.8451   16.2789    0.0000 C   0  0  0  0  0  0  0  0  0  0  0  0
   -7.3980   14.8845    0.0000 C   0  0  0  0  0  0  0  0  0  0  0  0
   -7.5557   10.8261    0.0000 C   0  0  0  0  0  0  0  0  0  0  0  0
   -8.1769   12.1914    0.0000 O   0  0  0  0  0  0  0  0  0  0  0  0
   -8.9373   10.2420    0.0000 N   0  0  0  0  0  0  0  0  0  0  0  0
  -10.1834    9.4069    0.0000 C   0  0  0  0  0  0  0  0  0  0  0  0
  -11.6026    9.8928    0.0000 C   0  0  0  0  0  0  0  0  0  0  0  0
  -11.8913   11.3648    0.0000 C   0  0  0  0  0  0  0  0  0  0  0  0
  -10.7609   12.3508    0.0000 C   0  0  0  0  0  0  0  0  0  0  0  0
  -11.0497   13.8228    0.0000 C   0  0  0  0  0  0  0  0  0  0  0  0
  -12.4688   14.3087    0.0000 C   0  0  0  0  0  0  0  0  0  0  0  0
  -13.5992   13.3226    0.0000 C   0  0  0  0  0  0  0  0  0  0  0  0
  -13.3104   11.8507    0.0000 C   0  0  0  0  0  0  0  0  0  0  0  0
  -11.2490    8.3512    0.0000 C   0  0  0  0  0  0  0  0  0  0  0  0
  -12.5097    9.1639    0.0000 O   0  0  0  0  0  0  0  0  0  0  0  0
  -12.0955    7.1129    0.0000 N   0  0  0  0  0  0  0  0  0  0  0  0
  -12.6923    5.7367    0.0000 C   0  0  0  0  0  0  0  0  0  0  0  0
  -14.1489    5.3783    0.0000 C   0  0  0  0  0  0  0  0  0  0  0  0
  -13.0179    4.2725    0.0000 C   0  0  0  0  0  0  0  0  0  0  0  0
  -14.5179    4.2746    0.0000 O   0  0  0  0  0  0  0  0  0  0  0  0
  -13.0606    2.7731    0.0000 N   0  0  0  0  0  0  0  0  0  0  0  0
  -12.8187    1.2927    0.0000 C   0  0  0  0  0  0  0  0  0  0  0  0
  -13.8502    0.2037    0.0000 C   0  0  0  0  0  0  0  0  0  0  0  0
  -15.3090    0.5525    0.0000 C   0  0  0  0  0  0  0  0  0  0  0  0
  -16.3406   -0.5365    0.0000 C   0  0  0  0  0  0  0  0  0  0  0  0
  -16.5606    1.3792    0.0000 C   0  0  0  0  0  0  0  0  0  0  0  0
  -12.3010   -0.1151    0.0000 C   0  0  0  0  0  0  0  0  0  0  0  0
  -13.5640   -0.9243    0.0000 O   0  0  0  0  0  0  0  0  0  0  0  0
  -11.5262   -1.3995    0.0000 N   0  0  0  0  0  0  0  0  0  0  0  0
  -10.5223   -2.5141    0.0000 C   0  0  0  0  0  0  0  0  0  0  0  0
   -9.3257   -3.4186    0.0000 C   0  0  0  0  0  0  0  0  0  0  0  0
   -7.9795   -4.0802    0.0000 C   0  0  0  0  0  0  0  0  0  0  0  0
   -6.5324   -4.4751    0.0000 C   0  0  0  0  0  0  0  0  0  0  0  0
   -5.0367   -4.5890    0.0000 C   0  0  0  0  0  0  0  0  0  0  0  0
  -11.9668   -2.9186    0.0000 C   0  0  0  0  0  0  0  0  0  0  0  0
  -10.8013   -3.9879    0.0000 C   0  0  0  0  0  0  0  0  0  0  0  0
   -9.9350   -5.2125    0.0000 O   0  0  0  0  0  0  0  0  0  0  0  0
  -12.2172   -4.4832    0.0000 N   0  0  0  0  0  0  0  0  0  0  0  0
  -12.4962   -5.9570    0.0000 C   0  0  0  0  0  0  0  0  0  0  0  0
  -12.2543   -7.4374    0.0000 C   0  0  0  0  0  0  0  0  0  0  0  0
  -13.4154   -8.3871    0.0000 C   0  0  0  0  0  0  0  0  0  0  0  0
  -13.1735   -9.8675    0.0000 O   0  0  0  0  0  0  0  0  0  0  0  0
  -14.9051   -8.2117    0.0000 O   0  0  0  0  0  0  0  0  0  0  0  0
  -13.9121   -6.4523    0.0000 C   0  0  0  0  0  0  0  0  0  0  0  0
  -15.0489   -5.4738    0.0000 O   0  0  0  0  0  0  0  0  0  0  0  0
  -14.1911   -7.9262    0.0000 N   0  0  0  0  0  0  0  0  0  0  0  0
  -15.6069   -8.4215    0.0000 C   0  0  0  0  0  0  0  0  0  0  0  0
  -17.1068   -8.4026    0.0000 C   0  0  0  0  0  0  0  0  0  0  0  0
  -17.8730   -9.6921    0.0000 C   0  0  0  0  0  0  0  0  0  0  0  0
  -19.3729   -9.6733    0.0000 C   0  0  0  0  0  0  0  0  0  0  0  0
  -20.2907  -10.8598    0.0000 N   0  0  0  0  0  0  0  0  0  0  0  0
  -20.1066   -8.3650    0.0000 O   0  0  0  0  0  0  0  0  0  0  0  0
  -15.8859   -9.8953    0.0000 C   0  0  0  0  0  0  0  0  0  0  0  0
  -14.7490  -10.8738    0.0000 O   0  0  0  0  0  0  0  0  0  0  0  0
  -17.3018  -10.3906    0.0000 N   0  0  0  0  0  0  0  0  0  0  0  0
  -17.5808  -11.8644    0.0000 C   0  0  0  0  0  0  0  0  0  0  0  0
  -17.3389  -13.3448    0.0000 C   0  0  0  0  0  0  0  0  0  0  0  0
  -18.4999  -14.2945    0.0000 C   0  0  0  0  0  0  0  0  0  0  0  0
  -16.6052  -14.6531    0.0000 C   0  0  0  0  0  0  0  0  0  0  0  0
  -15.1054  -14.6720    0.0000 C   0  0  0  0  0  0  0  0  0  0  0  0
  -18.9966  -12.3597    0.0000 C   0  0  0  0  0  0  0  0  0  0  0  0
  -19.4532  -13.7885    0.0000 O   0  0  0  0  0  0  0  0  0  0  0  0
  -20.2443  -11.5270    0.0000 O   0  0  0  0  0  0  0  0  0  0  0  0
   21.3596   -1.3743    0.0000 H   0  0  0  0  0  0  0  0  0  0  0  0
   21.2723   -5.8660    0.0000 H   0  0  0  0  0  0  0  0  0  0  0  0
   23.7755   -7.5195    0.0000 H   0  0  0  0  0  0  0  0  0  0  0  0
   23.7712   -1.5530    0.0000 H   0  0  0  0  0  0  0  0  0  0  0  0
   30.8130   -0.2389    0.0000 H   0  0  0  0  0  0  0  0  0  0  0  0
   31.5859   -5.3773    0.0000 H   0  0  0  0  0  0  0  0  0  0  0  0
   28.6192   -5.8235    0.0000 H   0  0  0  0  0  0  0  0  0  0  0  0
   33.6176   -3.7581    0.0000 H   0  0  0  0  0  0  0  0  0  0  0  0
   23.7829   -3.9236    0.0000 H   0  0  0  0  0  0  0  0  0  0  0  0
   21.8970   -1.3950    0.0000 H   0  0  0  0  0  0  0  0  0  0  0  0
   25.9767    1.6610    0.0000 H   0  0  0  0  0  0  0  0  0  0  0  0
   23.5585    2.6109    0.0000 H   0  0  0  0  0  0  0  0  0  0  0  0
   18.9494   -1.2179    0.0000 H   0  0  0  0  0  0  0  0  0  0  0  0
   18.4109   -4.5907    0.0000 H   0  0  0  0  0  0  0  0  0  0  0  0
   16.6264   -4.5924    0.0000 H   0  0  0  0  0  0  0  0  0  0  0  0
   17.2974   -1.4700    0.0000 H   0  0  0  0  0  0  0  0  0  0  0  0
   15.3725   -1.3541    0.0000 H   0  0  0  0  0  0  0  0  0  0  0  0
   13.7627   -0.9055    0.0000 H   0  0  0  0  0  0  0  0  0  0  0  0
   11.9034   -1.6356    0.0000 H   0  0  0  0  0  0  0  0  0  0  0  0
   13.6515   -5.7162    0.0000 H   0  0  0  0  0  0  0  0  0  0  0  0
   11.9741   -5.1074    0.0000 H   0  0  0  0  0  0  0  0  0  0  0  0
   17.1076   -5.3238    0.0000 H   0  0  0  0  0  0  0  0  0  0  0  0
   15.0108   -6.6882    0.0000 H   0  0  0  0  0  0  0  0  0  0  0  0
   10.5440   -0.6635    0.0000 H   0  0  0  0  0  0  0  0  0  0  0  0
    8.7290   -0.7357    0.0000 H   0  0  0  0  0  0  0  0  0  0  0  0
    8.7942   -5.1459    0.0000 H   0  0  0  0  0  0  0  0  0  0  0  0
    7.4799   -4.1753    0.0000 H   0  0  0  0  0  0  0  0  0  0  0  0
   11.8334   -3.8263    0.0000 H   0  0  0  0  0  0  0  0  0  0  0  0
   10.7930   -2.5665    0.0000 H   0  0  0  0  0  0  0  0  0  0  0  0
   12.6568   -7.2219    0.0000 H   0  0  0  0  0  0  0  0  0  0  0  0
   13.5347   -4.9952    0.0000 H   0  0  0  0  0  0  0  0  0  0  0  0
    7.6023    0.6648    0.0000 H   0  0  0  0  0  0  0  0  0  0  0  0
    5.7087    1.3008    0.0000 H   0  0  0  0  0  0  0  0  0  0  0  0
    4.2615   -2.8658    0.0000 H   0  0  0  0  0  0  0  0  0  0  0  0
    3.5628   -1.2239    0.0000 H   0  0  0  0  0  0  0  0  0  0  0  0
    7.1854   -1.2086    0.0000 H   0  0  0  0  0  0  0  0  0  0  0  0
    7.1975   -5.0017    0.0000 H   0  0  0  0  0  0  0  0  0  0  0  0
    5.5863   -5.2728    0.0000 H   0  0  0  0  0  0  0  0  0  0  0  0
    4.6926   -3.7283    0.0000 H   0  0  0  0  0  0  0  0  0  0  0  0
    8.1595   -4.1860    0.0000 H   0  0  0  0  0  0  0  0  0  0  0  0
    9.2195   -2.9427    0.0000 H   0  0  0  0  0  0  0  0  0  0  0  0
    7.6392   -1.2511    0.0000 H   0  0  0  0  0  0  0  0  0  0  0  0
    5.3639    2.7506    0.0000 H   0  0  0  0  0  0  0  0  0  0  0  0
    4.0075    1.7248    0.0000 H   0  0  0  0  0  0  0  0  0  0  0  0
    3.4506    0.4153    0.0000 H   0  0  0  0  0  0  0  0  0  0  0  0
    3.5142   -0.1679    0.0000 H   0  0  0  0  0  0  0  0  0  0  0  0
    2.9052   -1.0725    0.0000 H   0  0  0  0  0  0  0  0  0  0  0  0
    2.8241   -1.2194    0.0000 H   0  0  0  0  0  0  0  0  0  0  0  0
    2.0943   -2.4411    0.0000 H   0  0  0  0  0  0  0  0  0  0  0  0
    1.7707   -2.8293    0.0000 H   0  0  0  0  0  0  0  0  0  0  0  0
    0.8763   -3.7155    0.0000 H   0  0  0  0  0  0  0  0  0  0  0  0
    0.4851   -4.0355    0.0000 H   0  0  0  0  0  0  0  0  0  0  0  0
   -0.5610   -4.7364    0.0000 H   0  0  0  0  0  0  0  0  0  0  0  0
   -1.0056   -4.9766    0.0000 H   0  0  0  0  0  0  0  0  0  0  0  0
   -2.3478   -5.4497    0.0000 H   0  0  0  0  0  0  0  0  0  0  0  0
   -3.2345   -5.8850    0.0000 H   0  0  0  0  0  0  0  0  0  0  0  0
    5.3781    3.2482    0.0000 H   0  0  0  0  0  0  0  0  0  0  0  0
    5.0890    4.8563    0.0000 H   0  0  0  0  0  0  0  0  0  0  0  0
    3.3334    5.1757    0.0000 H   0  0  0  0  0  0  0  0  0  0  0  0
    3.6776    6.3649    0.0000 H   0  0  0  0  0  0  0  0  0  0  0  0
    3.0544    7.1734    0.0000 H   0  0  0  0  0  0  0  0  0  0  0  0
    2.4359   10.1990    0.0000 H   0  0  0  0  0  0  0  0  0  0  0  0
    0.9664    9.4850    0.0000 H   0  0  0  0  0  0  0  0  0  0  0  0
    5.1828    8.3462    0.0000 H   0  0  0  0  0  0  0  0  0  0  0  0
    3.9297    7.2977    0.0000 H   0  0  0  0  0  0  0  0  0  0  0  0
    4.6169   11.6109    0.0000 H   0  0  0  0  0  0  0  0  0  0  0  0
    3.0625   10.7345    0.0000 H   0  0  0  0  0  0  0  0  0  0  0  0
    6.7451    8.9395    0.0000 H   0  0  0  0  0  0  0  0  0  0  0  0
    8.7939   12.9461    0.0000 H   0  0  0  0  0  0  0  0  0  0  0  0
    6.4807   14.1289    0.0000 H   0  0  0  0  0  0  0  0  0  0  0  0
    4.2997   12.7171    0.0000 H   0  0  0  0  0  0  0  0  0  0  0  0
    0.4739   10.7907    0.0000 H   0  0  0  0  0  0  0  0  0  0  0  0
   -0.4358   11.1757    0.0000 H   0  0  0  0  0  0  0  0  0  0  0  0
   -2.3348   13.2947    0.0000 H   0  0  0  0  0  0  0  0  0  0  0  0
   -3.3547   11.8304    0.0000 H   0  0  0  0  0  0  0  0  0  0  0  0
   -0.7839   14.2402    0.0000 H   0  0  0  0  0  0  0  0  0  0  0  0
   -4.2934   12.6375    0.0000 H   0  0  0  0  0  0  0  0  0  0  0  0
   -5.4484   12.4946    0.0000 H   0  0  0  0  0  0  0  0  0  0  0  0
   -8.1915   13.2506    0.0000 H   0  0  0  0  0  0  0  0  0  0  0  0
   -8.2578   11.4674    0.0000 H   0  0  0  0  0  0  0  0  0  0  0  0
   -3.9153   12.8732    0.0000 H   0  0  0  0  0  0  0  0  0  0  0  0
   -2.9459   15.5397    0.0000 H   0  0  0  0  0  0  0  0  0  0  0  0
   -4.8082   17.8917    0.0000 H   0  0  0  0  0  0  0  0  0  0  0  0
   -7.7762   17.4549    0.0000 H   0  0  0  0  0  0  0  0  0  0  0  0
   -8.8820   14.6661    0.0000 H   0  0  0  0  0  0  0  0  0  0  0  0
   -9.4839   11.6388    0.0000 H   0  0  0  0  0  0  0  0  0  0  0  0
  -10.3783   10.8942    0.0000 H   0  0  0  0  0  0  0  0  0  0  0  0
  -13.0946   10.0471    0.0000 H   0  0  0  0  0  0  0  0  0  0  0  0
  -12.1863    8.5111    0.0000 H   0  0  0  0  0  0  0  0  0  0  0  0
   -9.2932   12.0415    0.0000 H   0  0  0  0  0  0  0  0  0  0  0  0
   -9.9193   14.8088    0.0000 H   0  0  0  0  0  0  0  0  0  0  0  0
  -12.7576   15.7806    0.0000 H   0  0  0  0  0  0  0  0  0  0  0  0
  -15.0183   13.8085    0.0000 H   0  0  0  0  0  0  0  0  0  0  0  0
  -14.4408   10.8647    0.0000 H   0  0  0  0  0  0  0  0  0  0  0  0
  -13.4087    7.8378    0.0000 H   0  0  0  0  0  0  0  0  0  0  0  0
  -13.6603    6.8826    0.0000 H   0  0  0  0  0  0  0  0  0  0  0  0
  -15.1876    6.4604    0.0000 H   0  0  0  0  0  0  0  0  0  0  0  0
  -15.4874    4.7014    0.0000 H   0  0  0  0  0  0  0  0  0  0  0  0
  -13.8929    3.9002    0.0000 H   0  0  0  0  0  0  0  0  0  0  0  0
  -14.5583    2.8562    0.0000 H   0  0  0  0  0  0  0  0  0  0  0  0
  -14.1881    1.9049    0.0000 H   0  0  0  0  0  0  0  0  0  0  0  0
  -14.4470   -1.1724    0.0000 H   0  0  0  0  0  0  0  0  0  0  0  0
  -12.8358   -0.9013    0.0000 H   0  0  0  0  0  0  0  0  0  0  0  0
  -15.0629    2.0322    0.0000 H   0  0  0  0  0  0  0  0  0  0  0  0
  -17.8311   -0.3681    0.0000 H   0  0  0  0  0  0  0  0  0  0  0  0
  -16.9374   -1.9127    0.0000 H   0  0  0  0  0  0  0  0  0  0  0  0
  -15.1991   -1.5097    0.0000 H   0  0  0  0  0  0  0  0  0  0  0  0
  -17.9742    0.8773    0.0000 H   0  0  0  0  0  0  0  0  0  0  0  0
  -17.4540    2.5842    0.0000 H   0  0  0  0  0  0  0  0  0  0  0  0
  -15.5291    2.4683    0.0000 H   0  0  0  0  0  0  0  0  0  0  0  0
  -12.8310   -2.1393    0.0000 H   0  0  0  0  0  0  0  0  0  0  0  0
   -9.3207   -4.9185    0.0000 H   0  0  0  0  0  0  0  0  0  0  0  0
  -10.4653   -4.3938    0.0000 H   0  0  0  0  0  0  0  0  0  0  0  0
   -7.8723   -5.5764    0.0000 H   0  0  0  0  0  0  0  0  0  0  0  0
   -8.9140   -5.2535    0.0000 H   0  0  0  0  0  0  0  0  0  0  0  0
   -5.9703   -5.8658    0.0000 H   0  0  0  0  0  0  0  0  0  0  0  0
   -7.3848   -5.7094    0.0000 H   0  0  0  0  0  0  0  0  0  0  0  0
   -5.0080   -6.0888    0.0000 H   0  0  0  0  0  0  0  0  0  0  0  0
  -12.6792   -4.2386    0.0000 H   0  0  0  0  0  0  0  0  0  0  0  0
  -13.4624   -2.8047    0.0000 H   0  0  0  0  0  0  0  0  0  0  0  0
  -12.4711   -1.5059    0.0000 H   0  0  0  0  0  0  0  0  0  0  0  0
  -13.4649   -3.6506    0.0000 H   0  0  0  0  0  0  0  0  0  0  0  0
  -10.9963   -5.9759    0.0000 H   0  0  0  0  0  0  0  0  0  0  0  0
  -11.5206   -8.7458    0.0000 H   0  0  0  0  0  0  0  0  0  0  0  0
  -10.8384   -6.9421    0.0000 H   0  0  0  0  0  0  0  0  0  0  0  0
  -16.0913   -8.5285    0.0000 H   0  0  0  0  0  0  0  0  0  0  0  0
  -13.3247   -9.1507    0.0000 H   0  0  0  0  0  0  0  0  0  0  0  0
  -15.8488   -6.9411    0.0000 H   0  0  0  0  0  0  0  0  0  0  0  0
  -18.5098   -7.8719    0.0000 H   0  0  0  0  0  0  0  0  0  0  0  0
  -16.8278   -6.9288    0.0000 H   0  0  0  0  0  0  0  0  0  0  0  0
  -18.1520  -11.1660    0.0000 H   0  0  0  0  0  0  0  0  0  0  0  0
  -16.8835  -10.8195    0.0000 H   0  0  0  0  0  0  0  0  0  0  0  0
  -21.6391  -10.9440    0.0000 H   0  0  0  0  0  0  0  0  0  0  0  0
  -19.9703  -12.4947    0.0000 H   0  0  0  0  0  0  0  0  0  0  0  0
  -18.6416   -9.7162    0.0000 H   0  0  0  0  0  0  0  0  0  0  0  0
  -16.0809  -11.8832    0.0000 H   0  0  0  0  0  0  0  0  0  0  0  0
  -15.9939  -12.6806    0.0000 H   0  0  0  0  0  0  0  0  0  0  0  0
  -18.4403  -15.7933    0.0000 H   0  0  0  0  0  0  0  0  0  0  0  0
  -19.9158  -14.7897    0.0000 H   0  0  0  0  0  0  0  0  0  0  0  0
  -19.7620  -13.4838    0.0000 H   0  0  0  0  0  0  0  0  0  0  0  0
  -16.3633  -16.1335    0.0000 H   0  0  0  0  0  0  0  0  0  0  0  0
  -17.9502  -15.3173    0.0000 H   0  0  0  0  0  0  0  0  0  0  0  0
  -14.3717  -15.9803    0.0000 H   0  0  0  0  0  0  0  0  0  0  0  0
  -13.6895  -14.1767    0.0000 H   0  0  0  0  0  0  0  0  0  0  0  0
  -15.1650  -13.1731    0.0000 H   0  0  0  0  0  0  0  0  0  0  0  0
  -21.5494  -11.8765    0.0000 H   0  0  0  0  0  0  0  0  0  0  0  0
  1  2  1  0
  2  3  1  0
  3  4  2  0
  4  5  1  0
  5  6  2  0
  6  7  1  0
  7  8  2  0
  7  9  1  0
  9 10  1  0
 10 11  1  0
 11 12  2  0
  9 13  1  0
 13 14  1  0
 14 15  2  0
 15 16  1  0
 16 17  2  0
 17 18  1  0
 16 19  1  0
 14 20  1  0
 20 21  1  0
 21 22  2  0
 22 23  1  0
 23 24  2  0
 24 25  1  0
 25 26  2  0
 25 27  1  0
  1 28  2  0
  1 29  1  0
 29 30  1  0
 30 31  1  0
 31 32  1  0
 32 33  2  0
 32 34  1  0
 34 35  1  0
 35 36  1  0
 36 37  1  0
 37 38  1  0
 37 39  2  0
 35 40  1  0
 40 41  2  0
 40 42  1  0
 42 43  1  0
 43 44  1  0
 44 45  1  0
 45 46  1  0
 46 47  1  0
 46 48  2  0
 43 49  1  0
 49 50  2  0
 49 51  1  0
 51 52  1  0
 52 53  1  0
 53 54  1  0
 54 55  1  0
 54 56  1  0
 52 57  1  0
 57 58  2  0
 57 59  1  0
 60 59  1  6
 60 61  1  0
 61 62  1  0
 62 63  1  0
 63 64  1  0
 64 65  1  0
 65 66  1  0
 66 67  1  0
 60 68  1  0
 60 69  1  0
 69 70  2  0
 69 71  1  0
 71 72  1  0
 72 73  1  0
 73 74  1  0
 74 75  1  0
 75 76  1  0
 76 77  1  0
 77 78  2  3
 77 79  1  0
 72 80  1  0
 80 81  2  0
 80 82  1  0
 82 83  1  0
 83 84  1  0
 84 85  1  0
 83 86  1  0
 86 87  2  0
 86 88  1  0
 88 89  1  0
 89 90  1  0
 90 91  1  0
 91 92  2  0
 92 93  1  0
 93 94  2  0
 94 95  1  0
 95 96  2  0
 89 97  1  0
 97 98  2  0
 97 99  1  0
 99100  1  0
100101  1  0
101102  1  0
102103  2  0
103104  1  0
104105  2  0
105106  1  0
106107  2  0
100108  1  0
108109  2  0
108110  1  0
110111  1  0
111112  1  0
111113  1  0
113114  2  0
113115  1  0
115116  1  0
116117  1  0
117118  1  0
118119  1  0
118120  1  0
116121  1  0
121122  2  0
121123  1  0
123124  1  0
124125  1  0
125126  1  0
126127  1  0
127128  1  0
124129  1  0
124130  1  1
130131  2  0
130132  1  0
132133  1  0
133134  1  0
134135  1  0
135136  2  0
135137  1  0
133138  1  0
138139  2  0
138140  1  0
140141  1  0
141142  1  0
142143  1  0
143144  1  0
144145  1  0
144146  2  0
141147  1  0
147148  2  0
147149  1  0
149150  1  0
150151  1  0
151152  1  0
151153  1  0
153154  1  0
150155  1  0
155156  2  0
155157  1  0
  8  3  1  0
 96 91  1  0
107102  1  0
 11  6  1  0
 67128  2  0
 18 13  2  0
 22  9  1  0
 26 21  1  0
  2158  1  0
  4159  1  0
  5160  1  0
  8161  1  0
 15162  1  0
 17163  1  0
 18164  1  0
 19165  1  0
 23166  1  0
 24167  1  0
 26168  1  0
 27169  1  0
 29170  1  0
 30171  1  0
 30172  1  0
 31173  1  0
 31174  1  0
 34175  1  0
 35176  1  1
 36177  1  0
 36178  1  0
 38179  1  0
 38180  1  0
 42181  1  0
 43182  1  1
 44183  1  0
 44184  1  0
 45185  1  0
 45186  1  0
 47187  1  0
 47188  1  0
 51189  1  0
 52190  1  1
 53191  1  0
 53192  1  0
 54193  1  0
 55194  1  0
 55195  1  0
 55196  1  0
 56197  1  0
 56198  1  0
 56199  1  0
 59200  1  0
 61201  1  0
 61202  1  0
 62203  1  0
 62204  1  0
 63205  1  0
 63206  1  0
 64207  1  0
 64208  1  0
 65209  1  0
 65210  1  0
 66211  1  0
 66212  1  0
 67213  1  0
 68214  1  0
 68215  1  0
 68216  1  0
 71217  1  0
 72218  1  6
 73219  1  0
 73220  1  0
 74221  1  0
 74222  1  0
 75223  1  0
 75224  1  0
 76225  1  0
 78226  1  0
 79227  1  0
 79228  1  0
 82229  1  0
 83230  1  6
 84231  1  0
 84232  1  0
 85233  1  0
 88234  1  0
 89235  1  6
 90236  1  0
 90237  1  0
 92238  1  0
 93239  1  0
 94240  1  0
 95241  1  0
 96242  1  0
 99243  1  0
100244  1  6
101245  1  0
101246  1  0
103247  1  0
104248  1  0
105249  1  0
106250  1  0
107251  1  0
110252  1  0
111253  1  6
112254  1  0
112255  1  0
112256  1  0
115257  1  0
116258  1  6
117259  1  0
117260  1  0
118261  1  0
119262  1  0
119263  1  0
119264  1  0
120265  1  0
120266  1  0
120267  1  0
123268  1  0
125269  1  0
125270  1  0
126271  1  0
126272  1  0
127273  1  0
127274  1  0
128275  1  0
129276  1  0
129277  1  0
129278  1  0
132279  1  0
133280  1  1
134281  1  0
134282  1  0
137283  1  0
140284  1  0
141285  1  6
142286  1  0
142287  1  0
143288  1  0
143289  1  0
145290  1  0
145291  1  0
149292  1  0
150293  1  1
151294  1  1
152295  1  0
152296  1  0
152297  1  0
153298  1  0
153299  1  0
154300  1  0
154301  1  0
154302  1  0
157303  1  0
M  END
