
     RDKit          2D

422430  0  0  0  0  0  0  0  0999 V2000
   13.2212  -10.8889    0.0000 C   0  0  0  0  0  0  0  0  0  0  0  0
   13.6438  -12.3281    0.0000 N   0  0  0  0  0  0  0  0  0  0  0  0
   12.6087  -13.4137    0.0000 C   0  0  0  0  0  0  0  0  0  0  0  0
   11.1510  -13.0601    0.0000 C   0  0  0  0  0  0  0  0  0  0  0  0
   10.1159  -14.1456    0.0000 C   0  0  0  0  0  0  0  0  0  0  0  0
   10.5385  -15.5849    0.0000 C   0  0  0  0  0  0  0  0  0  0  0  0
   11.9962  -15.9385    0.0000 C   0  0  0  0  0  0  0  0  0  0  0  0
   13.0313  -14.8529    0.0000 C   0  0  0  0  0  0  0  0  0  0  0  0
   12.1103  -17.4342    0.0000 C   0  0  0  0  0  0  0  0  0  0  0  0
   10.7231  -18.0049    0.0000 O   0  0  0  0  0  0  0  0  0  0  0  0
    9.7517  -16.8620    0.0000 C   0  0  0  0  0  0  0  0  0  0  0  0
    8.2560  -16.9761    0.0000 O   0  0  0  0  0  0  0  0  0  0  0  0
   12.0675  -18.9336    0.0000 C   0  0  0  0  0  0  0  0  0  0  0  0
   13.3445  -19.7204    0.0000 C   0  0  0  0  0  0  0  0  0  0  0  0
   13.3017  -21.2198    0.0000 C   0  0  0  0  0  0  0  0  0  0  0  0
   11.9818  -21.9324    0.0000 C   0  0  0  0  0  0  0  0  0  0  0  0
   10.7047  -21.1456    0.0000 C   0  0  0  0  0  0  0  0  0  0  0  0
   10.7475  -19.6462    0.0000 C   0  0  0  0  0  0  0  0  0  0  0  0
   11.9389  -23.4317    0.0000 O   0  0  0  0  0  0  0  0  0  0  0  0
   14.6645  -19.0078    0.0000 O   0  0  0  0  0  0  0  0  0  0  0  0
   14.7073  -17.5084    0.0000 C   0  0  0  0  0  0  0  0  0  0  0  0
   13.4302  -16.7216    0.0000 C   0  0  0  0  0  0  0  0  0  0  0  0
   14.0690  -15.5894    0.0000 C   0  0  0  0  0  0  0  0  0  0  0  0
   14.7730  -15.2093    0.0000 C   0  0  0  0  0  0  0  0  0  0  0  0
   15.4541  -15.6290    0.0000 C   0  0  0  0  0  0  0  0  0  0  0  0
   15.4313  -16.4286    0.0000 C   0  0  0  0  0  0  0  0  0  0  0  0
   17.3900  -14.5838    0.0000 O   0  0  0  0  0  0  0  0  0  0  0  0
   11.7635  -10.5352    0.0000 S   0  0  0  0  0  0  0  0  0  0  0  0
   14.2564   -9.8033    0.0000 N   0  0  0  0  0  0  0  0  0  0  0  0
   13.8338   -8.3640    0.0000 C   0  0  0  0  0  0  0  0  0  0  0  0
   14.8689   -7.2784    0.0000 C   0  0  0  0  0  0  0  0  0  0  0  0
   14.4463   -5.8392    0.0000 C   0  0  0  0  0  0  0  0  0  0  0  0
   13.0963   -5.8478    0.0000 O   0  0  0  0  0  0  0  0  0  0  0  0
   15.4814   -4.7536    0.0000 N   0  0  0  0  0  0  0  0  0  0  0  0
   15.0588   -3.3143    0.0000 C   0  0  0  0  0  0  0  0  0  0  0  0
   13.9569   -4.3321    0.0000 C   0  0  0  0  0  0  0  0  0  0  0  0
   12.6823   -5.1229    0.0000 C   0  0  0  0  0  0  0  0  0  0  0  0
   11.2811   -5.6583    0.0000 C   0  0  0  0  0  0  0  0  0  0  0  0
    9.8039   -5.9187    0.0000 C   0  0  0  0  0  0  0  0  0  0  0  0
    8.3041   -5.8949    0.0000 C   0  0  0  0  0  0  0  0  0  0  0  0
    6.8359   -5.5877    0.0000 C   0  0  0  0  0  0  0  0  0  0  0  0
    5.4524   -5.0082    0.0000 C   0  0  0  0  0  0  0  0  0  0  0  0
   16.5360   -3.5748    0.0000 C   0  0  0  0  0  0  0  0  0  0  0  0
   15.9482   -2.1064    0.0000 C   0  0  0  0  0  0  0  0  0  0  0  0
   17.3195   -2.7143    0.0000 O   0  0  0  0  0  0  0  0  0  0  0  0
   16.5929   -0.7521    0.0000 N   0  0  0  0  0  0  0  0  0  0  0  0
   16.9696    0.6999    0.0000 C   0  0  0  0  0  0  0  0  0  0  0  0
   18.3532    1.2794    0.0000 C   0  0  0  0  0  0  0  0  0  0  0  0
   19.5468    0.3710    0.0000 C   0  0  0  0  0  0  0  0  0  0  0  0
   20.9303    0.9505    0.0000 C   0  0  0  0  0  0  0  0  0  0  0  0
   22.1240    0.0420    0.0000 N   0  0  0  0  0  0  0  0  0  0  0  0
   23.5075    0.6216    0.0000 C   0  0  0  0  0  0  0  0  0  0  0  0
   24.7011   -0.2869    0.0000 N   0  0  0  0  0  0  0  0  0  0  0  0
   23.6974    2.1095    0.0000 N   0  0  0  0  0  0  0  0  0  0  0  0
   17.0648    2.1968    0.0000 C   0  0  0  0  0  0  0  0  0  0  0  0
   18.5470    2.4268    0.0000 O   0  0  0  0  0  0  0  0  0  0  0  0
   16.8749    3.6848    0.0000 N   0  0  0  0  0  0  0  0  0  0  0  0
   16.4068    5.1099    0.0000 C   0  0  0  0  0  0  0  0  0  0  0  0
   17.2574    6.3454    0.0000 C   0  0  0  0  0  0  0  0  0  0  0  0
   18.7527    6.2265    0.0000 C   0  0  0  0  0  0  0  0  0  0  0  0
   19.6033    7.4620    0.0000 C   0  0  0  0  0  0  0  0  0  0  0  0
   21.0986    7.3431    0.0000 N   0  0  0  0  0  0  0  0  0  0  0  0
   18.9586    8.8164    0.0000 O   0  0  0  0  0  0  0  0  0  0  0  0
   15.6776    6.4207    0.0000 C   0  0  0  0  0  0  0  0  0  0  0  0
   16.8002    7.4155    0.0000 O   0  0  0  0  0  0  0  0  0  0  0  0
   14.7134    7.5697    0.0000 N   0  0  0  0  0  0  0  0  0  0  0  0
   13.5492    8.5156    0.0000 C   0  0  0  0  0  0  0  0  0  0  0  0
   13.5968   10.0148    0.0000 C   0  0  0  0  0  0  0  0  0  0  0  0
   12.2270    9.2240    0.0000 C   0  0  0  0  0  0  0  0  0  0  0  0
   12.6335   10.6678    0.0000 O   0  0  0  0  0  0  0  0  0  0  0  0
   10.7946    9.6694    0.0000 N   0  0  0  0  0  0  0  0  0  0  0  0
    9.3039    9.8356    0.0000 C   0  0  0  0  0  0  0  0  0  0  0  0
    8.5334   11.1226    0.0000 C   0  0  0  0  0  0  0  0  0  0  0  0
    9.2627   12.4334    0.0000 C   0  0  0  0  0  0  0  0  0  0  0  0
    8.4922   13.7204    0.0000 C   0  0  0  0  0  0  0  0  0  0  0  0
    9.2215   15.0311    0.0000 N   0  0  0  0  0  0  0  0  0  0  0  0
    8.4510   16.3181    0.0000 C   0  0  0  0  0  0  0  0  0  0  0  0
    9.1803   17.6289    0.0000 N   0  0  0  0  0  0  0  0  0  0  0  0
    6.9511   16.2943    0.0000 N   0  0  0  0  0  0  0  0  0  0  0  0
    7.8086    9.7168    0.0000 C   0  0  0  0  0  0  0  0  0  0  0  0
    7.3700   11.1512    0.0000 O   0  0  0  0  0  0  0  0  0  0  0  0
    6.3628    9.3171    0.0000 N   0  0  0  0  0  0  0  0  0  0  0  0
    5.0188    8.6510    0.0000 C   0  0  0  0  0  0  0  0  0  0  0  0
    3.6749    9.3171    0.0000 C   0  0  0  0  0  0  0  0  0  0  0  0
    3.5797   10.8141    0.0000 C   0  0  0  0  0  0  0  0  0  0  0  0
    2.2357   11.4802    0.0000 C   0  0  0  0  0  0  0  0  0  0  0  0
    2.1406   12.9771    0.0000 N   0  0  0  0  0  0  0  0  0  0  0  0
    0.7966   13.6432    0.0000 C   0  0  0  0  0  0  0  0  0  0  0  0
    0.7015   15.1402    0.0000 N   0  0  0  0  0  0  0  0  0  0  0  0
   -0.4522   12.8124    0.0000 N   0  0  0  0  0  0  0  0  0  0  0  0
    3.8252    7.7426    0.0000 C   0  0  0  0  0  0  0  0  0  0  0  0
    2.6807    8.7122    0.0000 O   0  0  0  0  0  0  0  0  0  0  0  0
    2.8250    6.6247    0.0000 N   0  0  0  0  0  0  0  0  0  0  0  0
    2.0545    5.3377    0.0000 C   0  0  0  0  0  0  0  0  0  0  0  0
    0.5638    5.1714    0.0000 C   0  0  0  0  0  0  0  0  0  0  0  0
   -0.3256    6.3794    0.0000 C   0  0  0  0  0  0  0  0  0  0  0  0
   -1.8164    6.2131    0.0000 C   0  0  0  0  0  0  0  0  0  0  0  0
   -2.9716    7.1699    0.0000 N   0  0  0  0  0  0  0  0  0  0  0  0
   -2.4178    4.8389    0.0000 O   0  0  0  0  0  0  0  0  0  0  0  0
    1.5415    3.9282    0.0000 C   0  0  0  0  0  0  0  0  0  0  0  0
    0.1463    4.4791    0.0000 O   0  0  0  0  0  0  0  0  0  0  0  0
    1.3045    2.4470    0.0000 N   0  0  0  0  0  0  0  0  0  0  0  0
    1.3520    0.9478    0.0000 C   0  0  0  0  0  0  0  0  0  0  0  0
    1.6825   -0.5154    0.0000 C   0  0  0  0  0  0  0  0  0  0  0  0
    2.2839   -1.8896    0.0000 C   0  0  0  0  0  0  0  0  0  0  0  0
    3.1345   -3.1251    0.0000 C   0  0  0  0  0  0  0  0  0  0  0  0
    4.2035   -4.1773    0.0000 C   0  0  0  0  0  0  0  0  0  0  0  0
    0.7010   -0.5071    0.0000 C   0  0  0  0  0  0  0  0  0  0  0  0
    0.4851   -1.8568    0.0000 C   0  0  0  0  0  0  0  0  0  0  0  0
    0.0175   -3.1413    0.0000 C   0  0  0  0  0  0  0  0  0  0  0  0
   -0.6846   -4.3141    0.0000 C   0  0  0  0  0  0  0  0  0  0  0  0
    0.3565    2.1925    0.0000 C   0  0  0  0  0  0  0  0  0  0  0  0
    2.4467    2.8789    0.0000 O   0  0  0  0  0  0  0  0  0  0  0  0
   -0.1915    3.4447    0.0000 N   0  0  0  0  0  0  0  0  0  0  0  0
   -0.9666    4.5706    0.0000 C   0  0  0  0  0  0  0  0  0  0  0  0
    0.0377    6.4457    0.0000 C   0  0  0  0  0  0  0  0  0  0  0  0
   -0.9625    7.5636    0.0000 C   0  0  0  0  0  0  0  0  0  0  0  0
   -0.4944    8.9887    0.0000 C   0  0  0  0  0  0  0  0  0  0  0  0
   -1.4946   10.1066    0.0000 N   0  0  0  0  0  0  0  0  0  0  0  0
   -1.0265   11.5317    0.0000 C   0  0  0  0  0  0  0  0  0  0  0  0
   -1.8829   12.7632    0.0000 N   0  0  0  0  0  0  0  0  0  0  0  0
    0.3933   12.0156    0.0000 N   0  0  0  0  0  0  0  0  0  0  0  0
   -1.9408    5.5295    0.0000 C   0  0  0  0  0  0  0  0  0  0  0  0
   -1.0337    7.4987    0.0000 O   0  0  0  0  0  0  0  0  0  0  0  0
   -3.0789    6.2867    0.0000 N   0  0  0  0  0  0  0  0  0  0  0  0
   -4.3396    6.8148    0.0000 C   0  0  0  0  0  0  0  0  0  0  0  0
   -4.5085    8.9351    0.0000 C   0  0  0  0  0  0  0  0  0  0  0  0
   -3.4395    9.9873    0.0000 C   0  0  0  0  0  0  0  0  0  0  0  0
   -3.8162   11.4393    0.0000 C   0  0  0  0  0  0  0  0  0  0  0  0
   -2.7471   12.4915    0.0000 N   0  0  0  0  0  0  0  0  0  0  0  0
   -3.1239   13.9434    0.0000 C   0  0  0  0  0  0  0  0  0  0  0  0
   -2.0548   14.9956    0.0000 N   0  0  0  0  0  0  0  0  0  0  0  0
   -4.5696   14.3431    0.0000 N   0  0  0  0  0  0  0  0  0  0  0  0
   -5.6776    7.0947    0.0000 C   0  0  0  0  0  0  0  0  0  0  0  0
   -5.6167    9.2903    0.0000 O   0  0  0  0  0  0  0  0  0  0  0  0
   -7.0443    7.1164    0.0000 N   0  0  0  0  0  0  0  0  0  0  0  0
   -8.3905    6.8791    0.0000 C   0  0  0  0  0  0  0  0  0  0  0  0
   -9.6789    8.5715    0.0000 C   0  0  0  0  0  0  0  0  0  0  0  0
   -9.3484   10.0347    0.0000 C   0  0  0  0  0  0  0  0  0  0  0  0
  -10.4503   11.0525    0.0000 C   0  0  0  0  0  0  0  0  0  0  0  0
  -10.1198   12.5156    0.0000 N   0  0  0  0  0  0  0  0  0  0  0  0
  -11.2217   13.5334    0.0000 C   0  0  0  0  0  0  0  0  0  0  0  0
  -10.8913   14.9965    0.0000 N   0  0  0  0  0  0  0  0  0  0  0  0
  -12.6541   13.0880    0.0000 N   0  0  0  0  0  0  0  0  0  0  0  0
   -9.6674    6.3913    0.0000 C   0  0  0  0  0  0  0  0  0  0  0  0
  -10.8032    8.2712    0.0000 O   0  0  0  0  0  0  0  0  0  0  0  0
  -10.8289    5.6706    0.0000 N   0  0  0  0  0  0  0  0  0  0  0  0
  -11.8331    4.7431    0.0000 C   0  0  0  0  0  0  0  0  0  0  0  0
  -13.8319    5.4703    0.0000 C   0  0  0  0  0  0  0  0  0  0  0  0
  -14.3450    6.8799    0.0000 C   0  0  0  0  0  0  0  0  0  0  0  0
  -13.5062    8.1234    0.0000 C   0  0  0  0  0  0  0  0  0  0  0  0
  -14.4297    9.3055    0.0000 N   0  0  0  0  0  0  0  0  0  0  0  0
  -15.8392    8.7924    0.0000 C   0  0  0  0  0  0  0  0  0  0  0  0
  -17.1636    9.4966    0.0000 C   0  0  0  0  0  0  0  0  0  0  0  0
  -18.4357    8.7018    0.0000 C   0  0  0  0  0  0  0  0  0  0  0  0
  -18.3834    7.2027    0.0000 C   0  0  0  0  0  0  0  0  0  0  0  0
  -17.0589    6.4985    0.0000 C   0  0  0  0  0  0  0  0  0  0  0  0
  -15.7869    7.2933    0.0000 C   0  0  0  0  0  0  0  0  0  0  0  0
  -12.6435    3.6424    0.0000 C   0  0  0  0  0  0  0  0  0  0  0  0
  -14.6154    4.6099    0.0000 O   0  0  0  0  0  0  0  0  0  0  0  0
  -13.2310    2.4082    0.0000 N   0  0  0  0  0  0  0  0  0  0  0  0
  -13.5743    1.0850    0.0000 C   0  0  0  0  0  0  0  0  0  0  0  0
  -15.6491    0.6161    0.0000 C   0  0  0  0  0  0  0  0  0  0  0  0
  -16.8427    1.5246    0.0000 C   0  0  0  0  0  0  0  0  0  0  0  0
  -18.2262    0.9450    0.0000 C   0  0  0  0  0  0  0  0  0  0  0  0
  -19.4199    1.8535    0.0000 N   0  0  0  0  0  0  0  0  0  0  0  0
  -20.8034    1.2740    0.0000 C   0  0  0  0  0  0  0  0  0  0  0  0
  -21.9970    2.1824    0.0000 N   0  0  0  0  0  0  0  0  0  0  0  0
  -20.9933   -0.2140    0.0000 N   0  0  0  0  0  0  0  0  0  0  0  0
  -13.6610   -0.2791    0.0000 C   0  0  0  0  0  0  0  0  0  0  0  0
  -15.8429   -0.5313    0.0000 O   0  0  0  0  0  0  0  0  0  0  0  0
  -13.4880   -1.6350    0.0000 N   0  0  0  0  0  0  0  0  0  0  0  0
  -13.0615   -2.9337    0.0000 C   0  0  0  0  0  0  0  0  0  0  0  0
  -14.5533   -4.4499    0.0000 C   0  0  0  0  0  0  0  0  0  0  0  0
  -16.0486   -4.3310    0.0000 C   0  0  0  0  0  0  0  0  0  0  0  0
  -16.8992   -5.5665    0.0000 C   0  0  0  0  0  0  0  0  0  0  0  0
  -18.3945   -5.4476    0.0000 O   0  0  0  0  0  0  0  0  0  0  0  0
  -16.2545   -6.9209    0.0000 O   0  0  0  0  0  0  0  0  0  0  0  0
  -12.3969   -4.1282    0.0000 C   0  0  0  0  0  0  0  0  0  0  0  0
  -14.0961   -5.5200    0.0000 O   0  0  0  0  0  0  0  0  0  0  0  0
  -11.5182   -5.1753    0.0000 N   0  0  0  0  0  0  0  0  0  0  0  0
  -10.4573   -6.0373    0.0000 C   0  0  0  0  0  0  0  0  0  0  0  0
   -9.2524   -6.6828    0.0000 C   0  0  0  0  0  0  0  0  0  0  0  0
   -7.9472   -7.0887    0.0000 C   0  0  0  0  0  0  0  0  0  0  0  0
   -6.5887   -7.2402    0.0000 C   0  0  0  0  0  0  0  0  0  0  0  0
   -5.2260   -7.1319    0.0000 C   0  0  0  0  0  0  0  0  0  0  0  0
   -3.9086   -6.7676    0.0000 C   0  0  0  0  0  0  0  0  0  0  0  0
   -2.6838   -6.1606    0.0000 C   0  0  0  0  0  0  0  0  0  0  0  0
   -1.5960   -5.3328    0.0000 C   0  0  0  0  0  0  0  0  0  0  0  0
  -12.2095   -7.2432    0.0000 C   0  0  0  0  0  0  0  0  0  0  0  0
  -10.8927   -8.1193    0.0000 C   0  0  0  0  0  0  0  0  0  0  0  0
   -9.8473   -9.1951    0.0000 O   0  0  0  0  0  0  0  0  0  0  0  0
  -12.2148   -8.8277    0.0000 N   0  0  0  0  0  0  0  0  0  0  0  0
  -12.2624  -10.3269    0.0000 C   0  0  0  0  0  0  0  0  0  0  0  0
  -11.7944  -11.7521    0.0000 C   0  0  0  0  0  0  0  0  0  0  0  0
  -12.7946  -12.8699    0.0000 C   0  0  0  0  0  0  0  0  0  0  0  0
  -12.3265  -14.2951    0.0000 C   0  0  0  0  0  0  0  0  0  0  0  0
  -13.1830  -15.5265    0.0000 N   0  0  0  0  0  0  0  0  0  0  0  0
  -10.8583  -14.6023    0.0000 O   0  0  0  0  0  0  0  0  0  0  0  0
  -13.5846  -11.0353    0.0000 C   0  0  0  0  0  0  0  0  0  0  0  0
  -14.8592  -10.2445    0.0000 O   0  0  0  0  0  0  0  0  0  0  0  0
  -13.6322  -12.5346    0.0000 N   0  0  0  0  0  0  0  0  0  0  0  0
  -14.9544  -13.2430    0.0000 C   0  0  0  0  0  0  0  0  0  0  0  0
  -16.4391  -13.4565    0.0000 C   0  0  0  0  0  0  0  0  0  0  0  0
  -17.3664  -12.2774    0.0000 C   0  0  0  0  0  0  0  0  0  0  0  0
  -18.8511  -12.4908    0.0000 C   0  0  0  0  0  0  0  0  0  0  0  0
  -19.7783  -11.3118    0.0000 N   0  0  0  0  0  0  0  0  0  0  0  0
  -21.2631  -11.5252    0.0000 C   0  0  0  0  0  0  0  0  0  0  0  0
  -22.1903  -10.3461    0.0000 N   0  0  0  0  0  0  0  0  0  0  0  0
  -21.8206  -12.9178    0.0000 N   0  0  0  0  0  0  0  0  0  0  0  0
  -15.0020  -14.7422    0.0000 C   0  0  0  0  0  0  0  0  0  0  0  0
  -16.2280  -15.6065    0.0000 O   0  0  0  0  0  0  0  0  0  0  0  0
  -13.8333  -15.6825    0.0000 O   0  0  0  0  0  0  0  0  0  0  0  0
   15.1338  -12.5014    0.0000 H   0  0  0  0  0  0  0  0  0  0  0  0
   10.7284  -11.6208    0.0000 H   0  0  0  0  0  0  0  0  0  0  0  0
    8.6581  -13.7920    0.0000 H   0  0  0  0  0  0  0  0  0  0  0  0
   14.5313  -14.8433    0.0000 H   0  0  0  0  0  0  0  0  0  0  0  0
   14.5788  -22.0066    0.0000 H   0  0  0  0  0  0  0  0  0  0  0  0
    9.3848  -21.8581    0.0000 H   0  0  0  0  0  0  0  0  0  0  0  0
    9.4704  -18.8594    0.0000 H   0  0  0  0  0  0  0  0  0  0  0  0
   10.6190  -24.1443    0.0000 H   0  0  0  0  0  0  0  0  0  0  0  0
   12.1960  -14.4354    0.0000 H   0  0  0  0  0  0  0  0  0  0  0  0
   15.0183  -13.0266    0.0000 H   0  0  0  0  0  0  0  0  0  0  0  0
   17.3043  -17.5826    0.0000 H   0  0  0  0  0  0  0  0  0  0  0  0
   18.6671  -15.3706    0.0000 H   0  0  0  0  0  0  0  0  0  0  0  0
   15.7141  -10.1569    0.0000 H   0  0  0  0  0  0  0  0  0  0  0  0
   12.4898   -9.0301    0.0000 H   0  0  0  0  0  0  0  0  0  0  0  0
   12.9444   -7.1561    0.0000 H   0  0  0  0  0  0  0  0  0  0  0  0
   15.7582   -8.4863    0.0000 H   0  0  0  0  0  0  0  0  0  0  0  0
   16.2129   -6.6123    0.0000 H   0  0  0  0  0  0  0  0  0  0  0  0
   16.8852   -5.2823    0.0000 H   0  0  0  0  0  0  0  0  0  0  0  0
   15.1870   -5.1906    0.0000 H   0  0  0  0  0  0  0  0  0  0  0  0
   13.9164   -5.8316    0.0000 H   0  0  0  0  0  0  0  0  0  0  0  0
   13.5888   -6.3181    0.0000 H   0  0  0  0  0  0  0  0  0  0  0  0
   12.5398   -6.6161    0.0000 H   0  0  0  0  0  0  0  0  0  0  0  0
   12.3830   -6.6760    0.0000 H   0  0  0  0  0  0  0  0  0  0  0  0
   11.0371   -7.1383    0.0000 H   0  0  0  0  0  0  0  0  0  0  0  0
   10.5394   -7.2260    0.0000 H   0  0  0  0  0  0  0  0  0  0  0  0
    9.2842   -7.3258    0.0000 H   0  0  0  0  0  0  0  0  0  0  0  0
    8.7789   -7.3178    0.0000 H   0  0  0  0  0  0  0  0  0  0  0  0
    7.5275   -7.1782    0.0000 H   0  0  0  0  0  0  0  0  0  0  0  0
    7.0328   -7.0747    0.0000 H   0  0  0  0  0  0  0  0  0  0  0  0
    5.7023   -6.5700    0.0000 H   0  0  0  0  0  0  0  0  0  0  0  0
    4.7440   -6.3304    0.0000 H   0  0  0  0  0  0  0  0  0  0  0  0
   17.2171   -4.9113    0.0000 H   0  0  0  0  0  0  0  0  0  0  0  0
   18.0340   -3.4964    0.0000 H   0  0  0  0  0  0  0  0  0  0  0  0
   16.8990   -2.1194    0.0000 H   0  0  0  0  0  0  0  0  0  0  0  0
   17.9294   -1.4331    0.0000 H   0  0  0  0  0  0  0  0  0  0  0  0
   17.9751   -0.4133    0.0000 H   0  0  0  0  0  0  0  0  0  0  0  0
   19.4551    2.2971    0.0000 H   0  0  0  0  0  0  0  0  0  0  0  0
   17.8716    2.7000    0.0000 H   0  0  0  0  0  0  0  0  0  0  0  0
   20.3578   -0.8909    0.0000 H   0  0  0  0  0  0  0  0  0  0  0  0
   18.7239   -0.8832    0.0000 H   0  0  0  0  0  0  0  0  0  0  0  0
   22.0322    1.9682    0.0000 H   0  0  0  0  0  0  0  0  0  0  0  0
   20.2792    2.3018    0.0000 H   0  0  0  0  0  0  0  0  0  0  0  0
   21.9341   -1.4459    0.0000 H   0  0  0  0  0  0  0  0  0  0  0  0
   26.0847    0.2926    0.0000 H   0  0  0  0  0  0  0  0  0  0  0  0
   25.0809    2.6890    0.0000 H   0  0  0  0  0  0  0  0  0  0  0  0
   22.5038    3.0179    0.0000 H   0  0  0  0  0  0  0  0  0  0  0  0
   18.3674    3.8344    0.0000 H   0  0  0  0  0  0  0  0  0  0  0  0
   17.8545    4.7170    0.0000 H   0  0  0  0  0  0  0  0  0  0  0  0
   17.8083    7.7406    0.0000 H   0  0  0  0  0  0  0  0  0  0  0  0
   16.0843    7.2802    0.0000 H   0  0  0  0  0  0  0  0  0  0  0  0
   20.1172    5.6034    0.0000 H   0  0  0  0  0  0  0  0  0  0  0  0
   18.7385    4.7266    0.0000 H   0  0  0  0  0  0  0  0  0  0  0  0
   21.9492    8.5787    0.0000 H   0  0  0  0  0  0  0  0  0  0  0  0
   21.7433    5.9887    0.0000 H   0  0  0  0  0  0  0  0  0  0  0  0
   15.7656    8.6388    0.0000 H   0  0  0  0  0  0  0  0  0  0  0  0
   14.9136    9.1387    0.0000 H   0  0  0  0  0  0  0  0  0  0  0  0
   14.9189   10.7232    0.0000 H   0  0  0  0  0  0  0  0  0  0  0  0
   13.3059   11.4863    0.0000 H   0  0  0  0  0  0  0  0  0  0  0  0
   12.1045   10.1670    0.0000 H   0  0  0  0  0  0  0  0  0  0  0  0
   11.2785   11.0892    0.0000 H   0  0  0  0  0  0  0  0  0  0  0  0
   10.2626   10.9892    0.0000 H   0  0  0  0  0  0  0  0  0  0  0  0
    7.3692   12.0684    0.0000 H   0  0  0  0  0  0  0  0  0  0  0  0
    7.1957   10.4438    0.0000 H   0  0  0  0  0  0  0  0  0  0  0  0
   10.3963   13.4157    0.0000 H   0  0  0  0  0  0  0  0  0  0  0  0
   10.6212   11.7974    0.0000 H   0  0  0  0  0  0  0  0  0  0  0  0
    7.3279   14.6662    0.0000 H   0  0  0  0  0  0  0  0  0  0  0  0
    7.2472   12.8836    0.0000 H   0  0  0  0  0  0  0  0  0  0  0  0
   10.7213   15.0549    0.0000 H   0  0  0  0  0  0  0  0  0  0  0  0
    8.4097   18.9159    0.0000 H   0  0  0  0  0  0  0  0  0  0  0  0
    6.1806   17.5813    0.0000 H   0  0  0  0  0  0  0  0  0  0  0  0
    6.2218   14.9835    0.0000 H   0  0  0  0  0  0  0  0  0  0  0  0
    6.0023   10.7731    0.0000 H   0  0  0  0  0  0  0  0  0  0  0  0
    5.2017   10.1398    0.0000 H   0  0  0  0  0  0  0  0  0  0  0  0
    2.1841    9.4833    0.0000 H   0  0  0  0  0  0  0  0  0  0  0  0
    2.9165    8.0229    0.0000 H   0  0  0  0  0  0  0  0  0  0  0  0
    4.0023   12.2533    0.0000 H   0  0  0  0  0  0  0  0  0  0  0  0
    5.0664   11.0135    0.0000 H   0  0  0  0  0  0  0  0  0  0  0  0
    0.7764   11.8269    0.0000 H   0  0  0  0  0  0  0  0  0  0  0  0
    1.8131   10.0409    0.0000 H   0  0  0  0  0  0  0  0  0  0  0  0
    3.3895   13.8080    0.0000 H   0  0  0  0  0  0  0  0  0  0  0  0
   -0.6425   15.8063    0.0000 H   0  0  0  0  0  0  0  0  0  0  0  0
   -1.5951   13.7839    0.0000 H   0  0  0  0  0  0  0  0  0  0  0  0
    0.0023   11.3829    0.0000 H   0  0  0  0  0  0  0  0  0  0  0  0
    1.8682    7.7799    0.0000 H   0  0  0  0  0  0  0  0  0  0  0  0
    1.5730    6.7583    0.0000 H   0  0  0  0  0  0  0  0  0  0  0  0
   -0.9297    5.0314    0.0000 H   0  0  0  0  0  0  0  0  0  0  0  0
    0.2610    3.7023    0.0000 H   0  0  0  0  0  0  0  0  0  0  0  0
   -0.9205    7.7564    0.0000 H   0  0  0  0  0  0  0  0  0  0  0  0
    0.6903    7.4829    0.0000 H   0  0  0  0  0  0  0  0  0  0  0  0
   -4.1395    7.5486    0.0000 H   0  0  0  0  0  0  0  0  0  0  0  0
   -2.3089    8.8888    0.0000 H   0  0  0  0  0  0  0  0  0  0  0  0
   -0.1925    2.5421    0.0000 H   0  0  0  0  0  0  0  0  0  0  0  0
    0.8656   -1.7734    0.0000 H   0  0  0  0  0  0  0  0  0  0  0  0
    0.2248   -0.1617    0.0000 H   0  0  0  0  0  0  0  0  0  0  0  0
    1.7198   -3.2795    0.0000 H   0  0  0  0  0  0  0  0  0  0  0  0
    0.8596   -2.3600    0.0000 H   0  0  0  0  0  0  0  0  0  0  0  0
    2.6664   -4.5502    0.0000 H   0  0  0  0  0  0  0  0  0  0  0  0
    1.8249   -3.8565    0.0000 H   0  0  0  0  0  0  0  0  0  0  0  0
    3.2577   -5.3415    0.0000 H   0  0  0  0  0  0  0  0  0  0  0  0
    2.7218    0.1569    0.0000 H   0  0  0  0  0  0  0  0  0  0  0  0
    2.5063   -1.5640    0.0000 H   0  0  0  0  0  0  0  0  0  0  0  0
    2.6594   -2.1303    0.0000 H   0  0  0  0  0  0  0  0  0  0  0  0
    2.0577   -3.2363    0.0000 H   0  0  0  0  0  0  0  0  0  0  0  0
    2.1009   -3.8213    0.0000 H   0  0  0  0  0  0  0  0  0  0  0  0
    1.4605   -4.7041    0.0000 H   0  0  0  0  0  0  0  0  0  0  0  0
    1.0870   -5.6185    0.0000 H   0  0  0  0  0  0  0  0  0  0  0  0
    1.5156    4.8099    0.0000 H   0  0  0  0  0  0  0  0  0  0  0  0
    1.0173    5.4134    0.0000 H   0  0  0  0  0  0  0  0  0  0  0  0
    1.1017    7.5029    0.0000 H   0  0  0  0  0  0  0  0  0  0  0  0
    1.4920    6.0783    0.0000 H   0  0  0  0  0  0  0  0  0  0  0  0
   -2.0739    8.5709    0.0000 H   0  0  0  0  0  0  0  0  0  0  0  0
   -2.3348    6.9580    0.0000 H   0  0  0  0  0  0  0  0  0  0  0  0
    0.4328   10.1678    0.0000 H   0  0  0  0  0  0  0  0  0  0  0  0
    0.9043    8.4467    0.0000 H   0  0  0  0  0  0  0  0  0  0  0  0
   -2.9935   10.1638    0.0000 H   0  0  0  0  0  0  0  0  0  0  0  0
   -1.7209   14.1045    0.0000 H   0  0  0  0  0  0  0  0  0  0  0  0
    0.5923   13.3519    0.0000 H   0  0  0  0  0  0  0  0  0  0  0  0
    1.2762   10.6028    0.0000 H   0  0  0  0  0  0  0  0  0  0  0  0
   -1.8840    8.1297    0.0000 H   0  0  0  0  0  0  0  0  0  0  0  0
   -2.9982    8.4655    0.0000 H   0  0  0  0  0  0  0  0  0  0  0  0
   -5.3591   10.1707    0.0000 H   0  0  0  0  0  0  0  0  0  0  0  0
   -5.9832    8.6607    0.0000 H   0  0  0  0  0  0  0  0  0  0  0  0
   -2.2663   10.9221    0.0000 H   0  0  0  0  0  0  0  0  0  0  0  0
   -2.3152    8.9944    0.0000 H   0  0  0  0  0  0  0  0  0  0  0  0
   -4.6668   12.6748    0.0000 H   0  0  0  0  0  0  0  0  0  0  0  0
   -5.2464   10.9871    0.0000 H   0  0  0  0  0  0  0  0  0  0  0  0
   -1.2476   12.4535    0.0000 H   0  0  0  0  0  0  0  0  0  0  0  0
   -2.4315   16.4475    0.0000 H   0  0  0  0  0  0  0  0  0  0  0  0
   -4.9463   15.7950    0.0000 H   0  0  0  0  0  0  0  0  0  0  0  0
   -5.6387   13.2909    0.0000 H   0  0  0  0  0  0  0  0  0  0  0  0
   -7.0355    9.3129    0.0000 H   0  0  0  0  0  0  0  0  0  0  0  0
   -7.9821    8.9308    0.0000 H   0  0  0  0  0  0  0  0  0  0  0  0
  -11.0624    9.1511    0.0000 H   0  0  0  0  0  0  0  0  0  0  0  0
  -10.7711    7.5434    0.0000 H   0  0  0  0  0  0  0  0  0  0  0  0
   -8.5375   11.2966    0.0000 H   0  0  0  0  0  0  0  0  0  0  0  0
   -7.8658    9.8072    0.0000 H   0  0  0  0  0  0  0  0  0  0  0  0
  -11.8338   11.6320    0.0000 H   0  0  0  0  0  0  0  0  0  0  0  0
  -11.4091    9.8988    0.0000 H   0  0  0  0  0  0  0  0  0  0  0  0
   -8.6875   12.9610    0.0000 H   0  0  0  0  0  0  0  0  0  0  0  0
  -11.9931   16.0143    0.0000 H   0  0  0  0  0  0  0  0  0  0  0  0
  -13.7560   14.1058    0.0000 H   0  0  0  0  0  0  0  0  0  0  0  0
  -12.9846   11.6249    0.0000 H   0  0  0  0  0  0  0  0  0  0  0  0
  -12.0090    7.5231    0.0000 H   0  0  0  0  0  0  0  0  0  0  0  0
  -12.7773    6.6491    0.0000 H   0  0  0  0  0  0  0  0  0  0  0  0
  -15.3299    5.3919    0.0000 H   0  0  0  0  0  0  0  0  0  0  0  0
  -14.1949    4.0149    0.0000 H   0  0  0  0  0  0  0  0  0  0  0  0
  -12.0246    8.3581    0.0000 H   0  0  0  0  0  0  0  0  0  0  0  0
  -14.0162   10.7473    0.0000 H   0  0  0  0  0  0  0  0  0  0  0  0
  -17.2160   10.9957    0.0000 H   0  0  0  0  0  0  0  0  0  0  0  0
  -19.7601    9.4060    0.0000 H   0  0  0  0  0  0  0  0  0  0  0  0
  -19.6554    6.4078    0.0000 H   0  0  0  0  0  0  0  0  0  0  0  0
  -17.0066    4.9994    0.0000 H   0  0  0  0  0  0  0  0  0  0  0  0
  -15.2253    3.3286    0.0000 H   0  0  0  0  0  0  0  0  0  0  0  0
  -15.2710    2.3088    0.0000 H   0  0  0  0  0  0  0  0  0  0  0  0
  -16.7510   -0.4016    0.0000 H   0  0  0  0  0  0  0  0  0  0  0  0
  -15.1676   -0.8045    0.0000 H   0  0  0  0  0  0  0  0  0  0  0  0
  -17.6537    2.7864    0.0000 H   0  0  0  0  0  0  0  0  0  0  0  0
  -16.0198    2.7787    0.0000 H   0  0  0  0  0  0  0  0  0  0  0  0
  -19.3281   -0.0727    0.0000 H   0  0  0  0  0  0  0  0  0  0  0  0
  -17.5751   -0.4063    0.0000 H   0  0  0  0  0  0  0  0  0  0  0  0
  -19.2300    3.3414    0.0000 H   0  0  0  0  0  0  0  0  0  0  0  0
  -23.3806    1.6029    0.0000 H   0  0  0  0  0  0  0  0  0  0  0  0
  -22.3768   -0.7935    0.0000 H   0  0  0  0  0  0  0  0  0  0  0  0
  -19.7997   -1.1224    0.0000 H   0  0  0  0  0  0  0  0  0  0  0  0
  -15.6633   -1.9389    0.0000 H   0  0  0  0  0  0  0  0  0  0  0  0
  -15.1504   -2.8215    0.0000 H   0  0  0  0  0  0  0  0  0  0  0  0
  -15.1042   -5.8451    0.0000 H   0  0  0  0  0  0  0  0  0  0  0  0
  -13.3802   -5.3847    0.0000 H   0  0  0  0  0  0  0  0  0  0  0  0
  -17.4131   -3.7079    0.0000 H   0  0  0  0  0  0  0  0  0  0  0  0
  -16.0344   -2.8311    0.0000 H   0  0  0  0  0  0  0  0  0  0  0  0
  -17.1051   -8.1564    0.0000 H   0  0  0  0  0  0  0  0  0  0  0  0
  -13.1840   -6.6070    0.0000 H   0  0  0  0  0  0  0  0  0  0  0  0
   -9.2859   -8.8096    0.0000 H   0  0  0  0  0  0  0  0  0  0  0  0
  -10.4979   -8.4684    0.0000 H   0  0  0  0  0  0  0  0  0  0  0  0
   -7.7532   -9.2354    0.0000 H   0  0  0  0  0  0  0  0  0  0  0  0
   -8.8322   -9.0777    0.0000 H   0  0  0  0  0  0  0  0  0  0  0  0
   -5.9919   -9.3114    0.0000 H   0  0  0  0  0  0  0  0  0  0  0  0
   -7.2509   -9.2914    0.0000 H   0  0  0  0  0  0  0  0  0  0  0  0
   -4.2481   -9.0527    0.0000 H   0  0  0  0  0  0  0  0  0  0  0  0
   -5.4881   -9.2714    0.0000 H   0  0  0  0  0  0  0  0  0  0  0  0
   -2.5847   -8.4687    0.0000 H   0  0  0  0  0  0  0  0  0  0  0  0
   -3.7610   -8.9181    0.0000 H   0  0  0  0  0  0  0  0  0  0  0  0
   -0.9708   -7.4216    0.0000 H   0  0  0  0  0  0  0  0  0  0  0  0
   -2.1319   -8.2443    0.0000 H   0  0  0  0  0  0  0  0  0  0  0  0
   -0.1033   -6.9489    0.0000 H   0  0  0  0  0  0  0  0  0  0  0  0
  -12.7092   -8.6575    0.0000 H   0  0  0  0  0  0  0  0  0  0  0  0
  -13.7048   -7.3620    0.0000 H   0  0  0  0  0  0  0  0  0  0  0  0
  -12.9264   -5.9255    0.0000 H   0  0  0  0  0  0  0  0  0  0  0  0
  -13.5763   -8.1981    0.0000 H   0  0  0  0  0  0  0  0  0  0  0  0
  -10.7777  -10.1135    0.0000 H   0  0  0  0  0  0  0  0  0  0  0  0
  -10.8672  -12.9311    0.0000 H   0  0  0  0  0  0  0  0  0  0  0  0
  -10.4722  -11.0437    0.0000 H   0  0  0  0  0  0  0  0  0  0  0  0
  -14.1167  -13.5783    0.0000 H   0  0  0  0  0  0  0  0  0  0  0  0
  -14.1669  -12.2643    0.0000 H   0  0  0  0  0  0  0  0  0  0  0  0
  -12.8586  -16.8381    0.0000 H   0  0  0  0  0  0  0  0  0  0  0  0
  -14.8488  -15.5083    0.0000 H   0  0  0  0  0  0  0  0  0  0  0  0
  -12.5869  -13.6103    0.0000 H   0  0  0  0  0  0  0  0  0  0  0  0
  -15.2453  -11.7715    0.0000 H   0  0  0  0  0  0  0  0  0  0  0  0
  -17.6651  -14.3207    0.0000 H   0  0  0  0  0  0  0  0  0  0  0  0
  -16.1483  -14.9280    0.0000 H   0  0  0  0  0  0  0  0  0  0  0  0
  -17.8344  -10.8523    0.0000 H   0  0  0  0  0  0  0  0  0  0  0  0
  -16.1404  -11.4131    0.0000 H   0  0  0  0  0  0  0  0  0  0  0  0
  -20.1733  -13.1992    0.0000 H   0  0  0  0  0  0  0  0  0  0  0  0
  -18.5603  -13.9624    0.0000 H   0  0  0  0  0  0  0  0  0  0  0  0
  -19.2208   -9.9192    0.0000 H   0  0  0  0  0  0  0  0  0  0  0  0
  -23.6750  -10.5596    0.0000 H   0  0  0  0  0  0  0  0  0  0  0  0
  -23.3053  -13.1312    0.0000 H   0  0  0  0  0  0  0  0  0  0  0  0
  -20.8933  -14.0969    0.0000 H   0  0  0  0  0  0  0  0  0  0  0  0
  -13.7750  -17.0323    0.0000 H   0  0  0  0  0  0  0  0  0  0  0  0
  1  2  1  0
  2  3  1  0
  3  4  2  0
  4  5  1  0
  5  6  2  0
  6  7  1  0
  7  8  2  0
  7  9  1  0
  9 10  1  0
 10 11  1  0
 11 12  2  0
  9 13  1  0
 13 14  1  0
 14 15  2  0
 15 16  1  0
 16 17  2  0
 17 18  1  0
 16 19  1  0
 14 20  1  0
 20 21  1  0
 21 22  2  0
 22 23  1  0
 23 24  2  0
 24 25  1  0
 25 26  2  0
 25 27  1  0
  1 28  2  0
  1 29  1  0
 29 30  1  0
 30 31  1  0
 31 32  1  0
 32 33  2  0
 32 34  1  0
 35 34  1  6
 35 36  1  0
 36 37  1  0
 37 38  1  0
 38 39  1  0
 39 40  1  0
 40 41  1  0
 41 42  1  0
 35 43  1  0
 35 44  1  0
 44 45  2  0
 44 46  1  0
 46 47  1  0
 47 48  1  0
 48 49  1  0
 49 50  1  0
 50 51  1  0
 51 52  1  0
 52 53  2  3
 52 54  1  0
 47 55  1  0
 55 56  2  0
 55 57  1  0
 57 58  1  0
 58 59  1  0
 59 60  1  0
 60 61  1  0
 61 62  1  0
 61 63  2  0
 58 64  1  0
 64 65  2  0
 64 66  1  0
 66 67  1  0
 67 68  1  0
 67 69  1  0
 69 70  2  0
 69 71  1  0
 71 72  1  0
 72 73  1  0
 73 74  1  0
 74 75  1  0
 75 76  1  0
 76 77  1  0
 77 78  2  3
 77 79  1  0
 72 80  1  0
 80 81  2  0
 80 82  1  0
 82 83  1  0
 83 84  1  0
 84 85  1  0
 85 86  1  0
 86 87  1  0
 87 88  1  0
 88 89  2  3
 88 90  1  0
 83 91  1  0
 91 92  2  0
 91 93  1  0
 93 94  1  0
 94 95  1  0
 95 96  1  0
 96 97  1  0
 97 98  1  0
 97 99  2  0
 94100  1  0
100101  2  0
100102  1  0
102103  1  0
103104  1  0
104105  1  0
105106  1  0
106107  1  0
103108  1  0
108109  1  0
109110  1  0
110111  1  0
103112  1  0
112113  2  0
112114  1  0
114115  1  0
115116  1  0
116117  1  0
117118  1  0
118119  1  0
119120  1  0
120121  2  3
120122  1  0
115123  1  0
123124  2  0
123125  1  0
125126  1  0
126127  1  0
127128  1  0
128129  1  0
129130  1  0
130131  1  0
131132  2  3
131133  1  0
126134  1  0
134135  2  0
134136  1  0
136137  1  0
137138  1  0
138139  1  0
139140  1  0
140141  1  0
141142  1  0
142143  2  3
142144  1  0
137145  1  0
145146  2  0
145147  1  0
147148  1  0
148149  1  0
149150  1  0
150151  2  0
151152  1  0
152153  1  0
153154  2  0
154155  1  0
155156  2  0
156157  1  0
157158  2  0
148159  1  0
159160  2  0
159161  1  0
161162  1  0
162163  1  0
163164  1  0
164165  1  0
165166  1  0
166167  1  0
167168  2  3
167169  1  0
162170  1  0
170171  2  0
170172  1  0
172173  1  0
173174  1  0
174175  1  0
175176  1  0
176177  2  0
176178  1  0
173179  1  0
179180  2  0
179181  1  0
181182  1  0
182183  1  0
183184  1  0
184185  1  0
185186  1  0
186187  1  0
187188  1  0
188189  1  0
182190  1  0
182191  1  1
191192  2  0
191193  1  0
193194  1  0
194195  1  0
195196  1  0
196197  1  0
197198  1  0
197199  2  0
194200  1  0
200201  2  0
200202  1  0
202203  1  0
203204  1  0
204205  1  0
205206  1  0
206207  1  0
207208  1  0
208209  2  3
208210  1  0
203211  1  0
211212  2  0
211213  1  0
  8  3  1  0
158150  1  0
 11  6  1  0
 42107  2  0
158153  1  0
 18 13  2  0
111189  2  0
 22  9  1  0
 26 21  1  0
  2214  1  0
  4215  1  0
  5216  1  0
  8217  1  0
 15218  1  0
 17219  1  0
 18220  1  0
 19221  1  0
 23222  1  0
 24223  1  0
 26224  1  0
 27225  1  0
 29226  1  0
 30227  1  0
 30228  1  0
 31229  1  0
 31230  1  0
 34231  1  0
 36232  1  0
 36233  1  0
 37234  1  0
 37235  1  0
 38236  1  0
 38237  1  0
 39238  1  0
 39239  1  0
 40240  1  0
 40241  1  0
 41242  1  0
 41243  1  0
 42244  1  0
 43245  1  0
 43246  1  0
 43247  1  0
 46248  1  0
 47249  1  6
 48250  1  0
 48251  1  0
 49252  1  0
 49253  1  0
 50254  1  0
 50255  1  0
 51256  1  0
 53257  1  0
 54258  1  0
 54259  1  0
 57260  1  0
 58261  1  6
 59262  1  0
 59263  1  0
 60264  1  0
 60265  1  0
 62266  1  0
 62267  1  0
 66268  1  0
 67269  1  6
 68270  1  0
 68271  1  0
 68272  1  0
 71273  1  0
 72274  1  6
 73275  1  0
 73276  1  0
 74277  1  0
 74278  1  0
 75279  1  0
 75280  1  0
 76281  1  0
 78282  1  0
 79283  1  0
 79284  1  0
 82285  1  0
 83286  1  6
 84287  1  0
 84288  1  0
 85289  1  0
 85290  1  0
 86291  1  0
 86292  1  0
 87293  1  0
 89294  1  0
 90295  1  0
 90296  1  0
 93297  1  0
 94298  1  6
 95299  1  0
 95300  1  0
 96301  1  0
 96302  1  0
 98303  1  0
 98304  1  0
102305  1  0
104306  1  0
104307  1  0
105308  1  0
105309  1  0
106310  1  0
106311  1  0
107312  1  0
108313  1  0
108314  1  0
109315  1  0
109316  1  0
110317  1  0
110318  1  0
111319  1  0
114320  1  0
115321  1  6
116322  1  0
116323  1  0
117324  1  0
117325  1  0
118326  1  0
118327  1  0
119328  1  0
121329  1  0
122330  1  0
122331  1  0
125332  1  0
126333  1  6
127334  1  0
127335  1  0
128336  1  0
128337  1  0
129338  1  0
129339  1  0
130340  1  0
132341  1  0
133342  1  0
133343  1  0
136344  1  0
137345  1  6
138346  1  0
138347  1  0
139348  1  0
139349  1  0
140350  1  0
140351  1  0
141352  1  0
143353  1  0
144354  1  0
144355  1  0
147356  1  0
148357  1  6
149358  1  0
149359  1  0
151360  1  0
152361  1  0
154362  1  0
155363  1  0
156364  1  0
157365  1  0
161366  1  0
162367  1  6
163368  1  0
163369  1  0
164370  1  0
164371  1  0
165372  1  0
165373  1  0
166374  1  0
168375  1  0
169376  1  0
169377  1  0
172378  1  0
173379  1  6
174380  1  0
174381  1  0
175382  1  0
175383  1  0
178384  1  0
181385  1  0
183386  1  0
183387  1  0
184388  1  0
184389  1  0
185390  1  0
185391  1  0
186392  1  0
186393  1  0
187394  1  0
187395  1  0
188396  1  0
188397  1  0
189398  1  0
190399  1  0
190400  1  0
190401  1  0
193402  1  0
194403  1  1
195404  1  0
195405  1  0
196406  1  0
196407  1  0
198408  1  0
198409  1  0
202410  1  0
203411  1  6
204412  1  0
204413  1  0
205414  1  0
205415  1  0
206416  1  0
206417  1  0
207418  1  0
209419  1  0
210420  1  0
210421  1  0
213422  1  0
M  END
