
     RDKit          2D

348355  0  0  0  0  0  0  0  0999 V2000
  -28.6465    0.0520    0.0000 C   0  0  0  0  0  0  0  0  0  0  0  0
  -29.8979   -0.7750    0.0000 N   0  0  0  0  0  0  0  0  0  0  0  0
  -31.2398   -0.1047    0.0000 C   0  0  0  0  0  0  0  0  0  0  0  0
  -31.3303    1.3926    0.0000 C   0  0  0  0  0  0  0  0  0  0  0  0
  -32.6723    2.0628    0.0000 C   0  0  0  0  0  0  0  0  0  0  0  0
  -33.9237    1.2358    0.0000 C   0  0  0  0  0  0  0  0  0  0  0  0
  -33.8332   -0.2615    0.0000 C   0  0  0  0  0  0  0  0  0  0  0  0
  -32.4913   -0.9317    0.0000 C   0  0  0  0  0  0  0  0  0  0  0  0
  -35.2292   -0.8102    0.0000 C   0  0  0  0  0  0  0  0  0  0  0  0
  -36.1825    0.3479    0.0000 O   0  0  0  0  0  0  0  0  0  0  0  0
  -35.3756    1.6124    0.0000 C   0  0  0  0  0  0  0  0  0  0  0  0
  -35.9244    3.0084    0.0000 O   0  0  0  0  0  0  0  0  0  0  0  0
  -36.6749   -1.2100    0.0000 C   0  0  0  0  0  0  0  0  0  0  0  0
  -37.0515   -2.6620    0.0000 C   0  0  0  0  0  0  0  0  0  0  0  0
  -38.4973   -3.0618    0.0000 C   0  0  0  0  0  0  0  0  0  0  0  0
  -39.5664   -2.0097    0.0000 C   0  0  0  0  0  0  0  0  0  0  0  0
  -39.1898   -0.5577    0.0000 C   0  0  0  0  0  0  0  0  0  0  0  0
  -37.7441   -0.1579    0.0000 C   0  0  0  0  0  0  0  0  0  0  0  0
  -41.0121   -2.4095    0.0000 O   0  0  0  0  0  0  0  0  0  0  0  0
  -35.9824   -3.7141    0.0000 O   0  0  0  0  0  0  0  0  0  0  0  0
  -34.5367   -3.3143    0.0000 C   0  0  0  0  0  0  0  0  0  0  0  0
  -34.1601   -1.8623    0.0000 C   0  0  0  0  0  0  0  0  0  0  0  0
  -32.8901   -2.1401    0.0000 C   0  0  0  0  0  0  0  0  0  0  0  0
  -32.3199   -2.7012    0.0000 C   0  0  0  0  0  0  0  0  0  0  0  0
  -32.5208   -3.4756    0.0000 C   0  0  0  0  0  0  0  0  0  0  0  0
  -33.2918   -3.6888    0.0000 C   0  0  0  0  0  0  0  0  0  0  0  0
  -30.9527   -5.0187    0.0000 O   0  0  0  0  0  0  0  0  0  0  0  0
  -28.7370    1.5493    0.0000 S   0  0  0  0  0  0  0  0  0  0  0  0
  -27.3046   -0.6182    0.0000 N   0  0  0  0  0  0  0  0  0  0  0  0
  -26.0531    0.2088    0.0000 C   0  0  0  0  0  0  0  0  0  0  0  0
  -24.7112   -0.4615    0.0000 C   0  0  0  0  0  0  0  0  0  0  0  0
  -23.4598    0.3655    0.0000 C   0  0  0  0  0  0  0  0  0  0  0  0
  -23.5503    1.8628    0.0000 O   0  0  0  0  0  0  0  0  0  0  0  0
  -22.1179   -0.3047    0.0000 N   0  0  0  0  0  0  0  0  0  0  0  0
  -20.8665    0.5223    0.0000 C   0  0  0  0  0  0  0  0  0  0  0  0
  -19.9734    1.7274    0.0000 C   0  0  0  0  0  0  0  0  0  0  0  0
  -18.4831    1.5566    0.0000 C   0  0  0  0  0  0  0  0  0  0  0  0
  -17.5900    2.7617    0.0000 C   0  0  0  0  0  0  0  0  0  0  0  0
  -16.3751    2.7715    0.0000 O   0  0  0  0  0  0  0  0  0  0  0  0
  -18.1872    4.1377    0.0000 O   0  0  0  0  0  0  0  0  0  0  0  0
  -19.5245   -0.1480    0.0000 C   0  0  0  0  0  0  0  0  0  0  0  0
  -19.4340   -1.6452    0.0000 O   0  0  0  0  0  0  0  0  0  0  0  0
  -18.2731    0.6790    0.0000 N   0  0  0  0  0  0  0  0  0  0  0  0
  -16.9312    0.0088    0.0000 C   0  0  0  0  0  0  0  0  0  0  0  0
  -15.8994   -1.0800    0.0000 C   0  0  0  0  0  0  0  0  0  0  0  0
  -16.3265   -2.5180    0.0000 C   0  0  0  0  0  0  0  0  0  0  0  0
  -15.2947   -3.6068    0.0000 C   0  0  0  0  0  0  0  0  0  0  0  0
  -15.7218   -5.0447    0.0000 N   0  0  0  0  0  0  0  0  0  0  0  0
  -14.6901   -6.1335    0.0000 C   0  0  0  0  0  0  0  0  0  0  0  0
  -15.1171   -7.5714    0.0000 N   0  0  0  0  0  0  0  0  0  0  0  0
  -13.2312   -5.7844    0.0000 N   0  0  0  0  0  0  0  0  0  0  0  0
  -15.6798    0.8358    0.0000 C   0  0  0  0  0  0  0  0  0  0  0  0
  -15.6047    2.0485    0.0000 O   0  0  0  0  0  0  0  0  0  0  0  0
  -14.3379    0.1655    0.0000 N   0  0  0  0  0  0  0  0  0  0  0  0
  -13.0864    0.9925    0.0000 C   0  0  0  0  0  0  0  0  0  0  0  0
  -12.1933    2.1977    0.0000 C   0  0  0  0  0  0  0  0  0  0  0  0
  -10.7031    2.0268    0.0000 C   0  0  0  0  0  0  0  0  0  0  0  0
   -9.8100    3.2319    0.0000 C   0  0  0  0  0  0  0  0  0  0  0  0
   -9.3612    1.3565    0.0000 C   0  0  0  0  0  0  0  0  0  0  0  0
  -11.7445    0.3223    0.0000 C   0  0  0  0  0  0  0  0  0  0  0  0
  -11.6540   -1.1750    0.0000 O   0  0  0  0  0  0  0  0  0  0  0  0
  -10.4931    1.1493    0.0000 N   0  0  0  0  0  0  0  0  0  0  0  0
   -9.1512    0.4790    0.0000 C   0  0  0  0  0  0  0  0  0  0  0  0
   -8.1194   -0.6098    0.0000 C   0  0  0  0  0  0  0  0  0  0  0  0
   -8.5465   -2.0477    0.0000 C   0  0  0  0  0  0  0  0  0  0  0  0
   -7.5147   -3.1365    0.0000 C   0  0  0  0  0  0  0  0  0  0  0  0
   -7.9418   -4.5744    0.0000 N   0  0  0  0  0  0  0  0  0  0  0  0
   -6.9100   -5.6632    0.0000 C   0  0  0  0  0  0  0  0  0  0  0  0
   -7.3371   -7.1012    0.0000 N   0  0  0  0  0  0  0  0  0  0  0  0
   -5.4512   -5.3141    0.0000 N   0  0  0  0  0  0  0  0  0  0  0  0
   -7.8997    1.3060    0.0000 C   0  0  0  0  0  0  0  0  0  0  0  0
   -7.8071    2.8032    0.0000 O   0  0  0  0  0  0  0  0  0  0  0  0
   -6.5578    0.6358    0.0000 N   0  0  0  0  0  0  0  0  0  0  0  0
   -5.3064    1.4628    0.0000 C   0  0  0  0  0  0  0  0  0  0  0  0
   -4.4133    2.6679    0.0000 C   0  0  0  0  0  0  0  0  0  0  0  0
   -2.9231    2.4970    0.0000 C   0  0  0  0  0  0  0  0  0  0  0  0
   -2.0300    3.7022    0.0000 C   0  0  0  0  0  0  0  0  0  0  0  0
   -0.5397    3.5313    0.0000 N   0  0  0  0  0  0  0  0  0  0  0  0
    0.3534    4.7365    0.0000 C   0  0  0  0  0  0  0  0  0  0  0  0
    1.8117    4.3852    0.0000 N   0  0  0  0  0  0  0  0  0  0  0  0
   -0.2438    6.1125    0.0000 N   0  0  0  0  0  0  0  0  0  0  0  0
   -3.9645    0.7925    0.0000 C   0  0  0  0  0  0  0  0  0  0  0  0
   -3.8740   -0.7048    0.0000 O   0  0  0  0  0  0  0  0  0  0  0  0
   -2.7131    1.6195    0.0000 N   0  0  0  0  0  0  0  0  0  0  0  0
   -1.3711    0.9493    0.0000 C   0  0  0  0  0  0  0  0  0  0  0  0
   -0.3394   -0.1395    0.0000 C   0  0  0  0  0  0  0  0  0  0  0  0
   -0.7664   -1.5775    0.0000 C   0  0  0  0  0  0  0  0  0  0  0  0
    0.2653   -2.6663    0.0000 C   0  0  0  0  0  0  0  0  0  0  0  0
   -0.1617   -4.1042    0.0000 N   0  0  0  0  0  0  0  0  0  0  0  0
    0.8700   -5.1930    0.0000 C   0  0  0  0  0  0  0  0  0  0  0  0
    0.4430   -6.6309    0.0000 N   0  0  0  0  0  0  0  0  0  0  0  0
    2.3288   -4.8439    0.0000 N   0  0  0  0  0  0  0  0  0  0  0  0
   -0.1197    1.7763    0.0000 C   0  0  0  0  0  0  0  0  0  0  0  0
    0.0804    2.8513    0.0000 O   0  0  0  0  0  0  0  0  0  0  0  0
    1.2222    1.1060    0.0000 N   0  0  0  0  0  0  0  0  0  0  0  0
    2.4736    1.9330    0.0000 C   0  0  0  0  0  0  0  0  0  0  0  0
    3.3667    3.1382    0.0000 C   0  0  0  0  0  0  0  0  0  0  0  0
    4.8570    2.9673    0.0000 C   0  0  0  0  0  0  0  0  0  0  0  0
    5.5965    4.2723    0.0000 N   0  0  0  0  0  0  0  0  0  0  0  0
    5.3418    2.3345    0.0000 O   0  0  0  0  0  0  0  0  0  0  0  0
    3.8156    1.2628    0.0000 C   0  0  0  0  0  0  0  0  0  0  0  0
    3.7229   -0.2344    0.0000 O   0  0  0  0  0  0  0  0  0  0  0  0
    5.0670    2.0898    0.0000 N   0  0  0  0  0  0  0  0  0  0  0  0
    6.4089    1.4195    0.0000 C   0  0  0  0  0  0  0  0  0  0  0  0
    6.7943   -0.0301    0.0000 C   0  0  0  0  0  0  0  0  0  0  0  0
    7.5898   -1.3018    0.0000 C   0  0  0  0  0  0  0  0  0  0  0  0
    8.7249   -2.2825    0.0000 C   0  0  0  0  0  0  0  0  0  0  0  0
   10.0985   -2.8850    0.0000 C   0  0  0  0  0  0  0  0  0  0  0  0
    5.1392    0.6208    0.0000 C   0  0  0  0  0  0  0  0  0  0  0  0
    6.4679    2.9183    0.0000 C   0  0  0  0  0  0  0  0  0  0  0  0
    5.1935    3.7095    0.0000 O   0  0  0  0  0  0  0  0  0  0  0  0
    6.9661    4.3332    0.0000 N   0  0  0  0  0  0  0  0  0  0  0  0
    7.8592    5.5383    0.0000 C   0  0  0  0  0  0  0  0  0  0  0  0
    7.5466    7.0054    0.0000 C   0  0  0  0  0  0  0  0  0  0  0  0
    6.1198    7.4682    0.0000 C   0  0  0  0  0  0  0  0  0  0  0  0
    5.8071    8.9352    0.0000 C   0  0  0  0  0  0  0  0  0  0  0  0
    4.6207    7.4150    0.0000 C   0  0  0  0  0  0  0  0  0  0  0  0
    9.0679    6.4267    0.0000 C   0  0  0  0  0  0  0  0  0  0  0  0
    8.3696    7.7542    0.0000 O   0  0  0  0  0  0  0  0  0  0  0  0
   10.4847    6.9193    0.0000 N   0  0  0  0  0  0  0  0  0  0  0  0
   11.9837    6.9725    0.0000 C   0  0  0  0  0  0  0  0  0  0  0  0
   12.9358    8.1316    0.0000 C   0  0  0  0  0  0  0  0  0  0  0  0
   12.4080    9.5357    0.0000 S   0  0  0  0  0  0  0  0  0  0  0  0
   13.4318    6.5814    0.0000 C   0  0  0  0  0  0  0  0  0  0  0  0
   14.0344    7.9551    0.0000 O   0  0  0  0  0  0  0  0  0  0  0  0
   14.7004    5.7809    0.0000 N   0  0  0  0  0  0  0  0  0  0  0  0
   15.6766    4.6420    0.0000 C   0  0  0  0  0  0  0  0  0  0  0  0
   17.1764    4.6203    0.0000 C   0  0  0  0  0  0  0  0  0  0  0  0
   17.9451    5.9084    0.0000 C   0  0  0  0  0  0  0  0  0  0  0  0
   19.4449    5.8868    0.0000 C   0  0  0  0  0  0  0  0  0  0  0  0
   20.2136    7.1748    0.0000 N   0  0  0  0  0  0  0  0  0  0  0  0
   21.7134    7.1532    0.0000 C   0  0  0  0  0  0  0  0  0  0  0  0
   22.4821    8.4413    0.0000 N   0  0  0  0  0  0  0  0  0  0  0  0
   22.4446    5.8435    0.0000 N   0  0  0  0  0  0  0  0  0  0  0  0
   16.2737    3.2660    0.0000 C   0  0  0  0  0  0  0  0  0  0  0  0
   17.7233    3.6513    0.0000 O   0  0  0  0  0  0  0  0  0  0  0  0
   16.4387    1.7751    0.0000 N   0  0  0  0  0  0  0  0  0  0  0  0
   16.1570    0.3018    0.0000 C   0  0  0  0  0  0  0  0  0  0  0  0
   15.4534   -1.0230    0.0000 C   0  0  0  0  0  0  0  0  0  0  0  0
   14.3907   -2.0816    0.0000 C   0  0  0  0  0  0  0  0  0  0  0  0
   13.0632   -2.7799    0.0000 C   0  0  0  0  0  0  0  0  0  0  0  0
   11.5888   -3.0559    0.0000 C   0  0  0  0  0  0  0  0  0  0  0  0
   17.6158    0.6509    0.0000 C   0  0  0  0  0  0  0  0  0  0  0  0
   17.0752   -0.8844    0.0000 C   0  0  0  0  0  0  0  0  0  0  0  0
   16.8599   -2.3688    0.0000 O   0  0  0  0  0  0  0  0  0  0  0  0
   18.5615   -0.6822    0.0000 N   0  0  0  0  0  0  0  0  0  0  0  0
   19.4797   -1.8683    0.0000 C   0  0  0  0  0  0  0  0  0  0  0  0
   19.9369   -3.2970    0.0000 C   0  0  0  0  0  0  0  0  0  0  0  0
   18.9282   -4.4072    0.0000 C   0  0  0  0  0  0  0  0  0  0  0  0
   19.2335   -5.8758    0.0000 C   0  0  0  0  0  0  0  0  0  0  0  0
   17.9312   -6.6200    0.0000 N   0  0  0  0  0  0  0  0  0  0  0  0
   16.8209   -5.6114    0.0000 C   0  0  0  0  0  0  0  0  0  0  0  0
   17.4371   -4.2438    0.0000 N   0  0  0  0  0  0  0  0  0  0  0  0
   20.9660   -1.6662    0.0000 C   0  0  0  0  0  0  0  0  0  0  0  0
   21.5341   -0.2780    0.0000 O   0  0  0  0  0  0  0  0  0  0  0  0
   21.8842   -2.8523    0.0000 N   0  0  0  0  0  0  0  0  0  0  0  0
   23.3705   -2.6502    0.0000 C   0  0  0  0  0  0  0  0  0  0  0  0
   24.6981   -1.9519    0.0000 C   0  0  0  0  0  0  0  0  0  0  0  0
   25.9666   -2.7524    0.0000 C   0  0  0  0  0  0  0  0  0  0  0  0
   27.3599   -2.1967    0.0000 C   0  0  0  0  0  0  0  0  0  0  0  0
   28.3189   -3.3501    0.0000 N   0  0  0  0  0  0  0  0  0  0  0  0
   27.5184   -4.6186    0.0000 C   0  0  0  0  0  0  0  0  0  0  0  0
   26.0646   -4.2492    0.0000 N   0  0  0  0  0  0  0  0  0  0  0  0
   24.2888   -3.8363    0.0000 C   0  0  0  0  0  0  0  0  0  0  0  0
   23.7207   -5.2246    0.0000 O   0  0  0  0  0  0  0  0  0  0  0  0
   25.7751   -3.6342    0.0000 N   0  0  0  0  0  0  0  0  0  0  0  0
   26.6933   -4.8203    0.0000 C   0  0  0  0  0  0  0  0  0  0  0  0
   27.1505   -6.2489    0.0000 C   0  0  0  0  0  0  0  0  0  0  0  0
   26.1418   -7.3592    0.0000 O   0  0  0  0  0  0  0  0  0  0  0  0
   28.1796   -4.6182    0.0000 C   0  0  0  0  0  0  0  0  0  0  0  0
   29.0668   -3.4086    0.0000 O   0  0  0  0  0  0  0  0  0  0  0  0
   29.0978   -5.8043    0.0000 N   0  0  0  0  0  0  0  0  0  0  0  0
   30.5841   -5.6021    0.0000 C   0  0  0  0  0  0  0  0  0  0  0  0
   31.9117   -4.9039    0.0000 C   0  0  0  0  0  0  0  0  0  0  0  0
   32.9203   -3.7936    0.0000 O   0  0  0  0  0  0  0  0  0  0  0  0
   33.1802   -5.7044    0.0000 C   0  0  0  0  0  0  0  0  0  0  0  0
   31.5024   -6.7883    0.0000 C   0  0  0  0  0  0  0  0  0  0  0  0
   33.0022   -6.7688    0.0000 O   0  0  0  0  0  0  0  0  0  0  0  0
   30.9343   -8.1765    0.0000 O   0  0  0  0  0  0  0  0  0  0  0  0
  -29.6256   -2.2500    0.0000 H   0  0  0  0  0  0  0  0  0  0  0  0
  -30.0789    2.2196    0.0000 H   0  0  0  0  0  0  0  0  0  0  0  0
  -32.7627    3.5601    0.0000 H   0  0  0  0  0  0  0  0  0  0  0  0
  -32.0411   -2.3626    0.0000 H   0  0  0  0  0  0  0  0  0  0  0  0
  -38.8739   -4.5137    0.0000 H   0  0  0  0  0  0  0  0  0  0  0  0
  -40.2589    0.4944    0.0000 H   0  0  0  0  0  0  0  0  0  0  0  0
  -37.3674    1.2941    0.0000 H   0  0  0  0  0  0  0  0  0  0  0  0
  -42.0812   -1.3574    0.0000 H   0  0  0  0  0  0  0  0  0  0  0  0
  -32.3377   -0.0106    0.0000 H   0  0  0  0  0  0  0  0  0  0  0  0
  -30.1615   -2.2940    0.0000 H   0  0  0  0  0  0  0  0  0  0  0  0
  -33.8442   -5.8184    0.0000 H   0  0  0  0  0  0  0  0  0  0  0  0
  -31.3293   -6.4707    0.0000 H   0  0  0  0  0  0  0  0  0  0  0  0
  -27.2141   -2.1155    0.0000 H   0  0  0  0  0  0  0  0  0  0  0  0
  -25.1600    1.4139    0.0000 H   0  0  0  0  0  0  0  0  0  0  0  0
  -27.0849    1.2976    0.0000 H   0  0  0  0  0  0  0  0  0  0  0  0
  -23.6795   -1.5503    0.0000 H   0  0  0  0  0  0  0  0  0  0  0  0
  -25.6043   -1.6666    0.0000 H   0  0  0  0  0  0  0  0  0  0  0  0
  -22.0274   -1.8020    0.0000 H   0  0  0  0  0  0  0  0  0  0  0  0
  -21.8982    1.6111    0.0000 H   0  0  0  0  0  0  0  0  0  0  0  0
  -19.5463    3.1654    0.0000 H   0  0  0  0  0  0  0  0  0  0  0  0
  -21.3153    2.3977    0.0000 H   0  0  0  0  0  0  0  0  0  0  0  0
  -17.1412    0.8863    0.0000 H   0  0  0  0  0  0  0  0  0  0  0  0
  -18.1850    0.0865    0.0000 H   0  0  0  0  0  0  0  0  0  0  0  0
  -17.9986    2.1537    0.0000 H   0  0  0  0  0  0  0  0  0  0  0  0
  -17.9645   -1.0785    0.0000 H   0  0  0  0  0  0  0  0  0  0  0  0
  -14.5575   -1.7503    0.0000 H   0  0  0  0  0  0  0  0  0  0  0  0
  -14.7413   -0.1268    0.0000 H   0  0  0  0  0  0  0  0  0  0  0  0
  -17.2196   -3.7231    0.0000 H   0  0  0  0  0  0  0  0  0  0  0  0
  -17.7401   -2.0163    0.0000 H   0  0  0  0  0  0  0  0  0  0  0  0
  -13.9528   -4.2770    0.0000 H   0  0  0  0  0  0  0  0  0  0  0  0
  -14.2614   -2.5195    0.0000 H   0  0  0  0  0  0  0  0  0  0  0  0
  -17.1806   -5.3938    0.0000 H   0  0  0  0  0  0  0  0  0  0  0  0
  -14.0854   -8.6602    0.0000 H   0  0  0  0  0  0  0  0  0  0  0  0
  -16.5759   -7.9205    0.0000 H   0  0  0  0  0  0  0  0  0  0  0  0
  -12.1995   -6.8732    0.0000 H   0  0  0  0  0  0  0  0  0  0  0  0
  -12.8042   -4.3464    0.0000 H   0  0  0  0  0  0  0  0  0  0  0  0
  -14.0655   -1.3096    0.0000 H   0  0  0  0  0  0  0  0  0  0  0  0
  -14.1182    2.0813    0.0000 H   0  0  0  0  0  0  0  0  0  0  0  0
  -11.9447    3.6769    0.0000 H   0  0  0  0  0  0  0  0  0  0  0  0
  -13.5352    2.8679    0.0000 H   0  0  0  0  0  0  0  0  0  0  0  0
  -10.4049    0.5567    0.0000 H   0  0  0  0  0  0  0  0  0  0  0  0
   -8.3227    3.4267    0.0000 H   0  0  0  0  0  0  0  0  0  0  0  0
   -9.3829    4.6699    0.0000 H   0  0  0  0  0  0  0  0  0  0  0  0
  -11.0602    4.0608    0.0000 H   0  0  0  0  0  0  0  0  0  0  0  0
   -8.9111   -0.0743    0.0000 H   0  0  0  0  0  0  0  0  0  0  0  0
   -7.9087    1.7312    0.0000 H   0  0  0  0  0  0  0  0  0  0  0  0
   -8.7620    2.7317    0.0000 H   0  0  0  0  0  0  0  0  0  0  0  0
  -10.2186    2.6239    0.0000 H   0  0  0  0  0  0  0  0  0  0  0  0
  -10.1845   -0.6083    0.0000 H   0  0  0  0  0  0  0  0  0  0  0  0
   -6.7775   -1.2800    0.0000 H   0  0  0  0  0  0  0  0  0  0  0  0
   -6.8537    0.1952    0.0000 H   0  0  0  0  0  0  0  0  0  0  0  0
   -9.4396   -3.2529    0.0000 H   0  0  0  0  0  0  0  0  0  0  0  0
   -9.9601   -1.5460    0.0000 H   0  0  0  0  0  0  0  0  0  0  0  0
   -6.1728   -3.8068    0.0000 H   0  0  0  0  0  0  0  0  0  0  0  0
   -6.4814   -2.0492    0.0000 H   0  0  0  0  0  0  0  0  0  0  0  0
   -9.4006   -4.9236    0.0000 H   0  0  0  0  0  0  0  0  0  0  0  0
   -6.3053   -8.1900    0.0000 H   0  0  0  0  0  0  0  0  0  0  0  0
   -8.7959   -7.4503    0.0000 H   0  0  0  0  0  0  0  0  0  0  0  0
   -4.4195   -6.4029    0.0000 H   0  0  0  0  0  0  0  0  0  0  0  0
   -5.0242   -3.8762    0.0000 H   0  0  0  0  0  0  0  0  0  0  0  0
   -6.2855   -0.8393    0.0000 H   0  0  0  0  0  0  0  0  0  0  0  0
   -6.3381    2.5516    0.0000 H   0  0  0  0  0  0  0  0  0  0  0  0
   -4.1647    4.1472    0.0000 H   0  0  0  0  0  0  0  0  0  0  0  0
   -5.7552    3.3382    0.0000 H   0  0  0  0  0  0  0  0  0  0  0  0
   -1.5811    1.8268    0.0000 H   0  0  0  0  0  0  0  0  0  0  0  0
   -2.6249    1.0270    0.0000 H   0  0  0  0  0  0  0  0  0  0  0  0
   -1.6029    5.1401    0.0000 H   0  0  0  0  0  0  0  0  0  0  0  0
   -3.2802    4.5310    0.0000 H   0  0  0  0  0  0  0  0  0  0  0  0
    0.3726    2.3407    0.0000 H   0  0  0  0  0  0  0  0  0  0  0  0
    2.7367    5.7707    0.0000 H   0  0  0  0  0  0  0  0  0  0  0  0
    2.2903    3.1218    0.0000 H   0  0  0  0  0  0  0  0  0  0  0  0
    0.6493    7.3176    0.0000 H   0  0  0  0  0  0  0  0  0  0  0  0
   -1.7340    6.2833    0.0000 H   0  0  0  0  0  0  0  0  0  0  0  0
   -2.4386    3.0942    0.0000 H   0  0  0  0  0  0  0  0  0  0  0  0
   -2.4045   -0.1380    0.0000 H   0  0  0  0  0  0  0  0  0  0  0  0
    1.0025   -0.8098    0.0000 H   0  0  0  0  0  0  0  0  0  0  0  0
    0.8188    0.8137    0.0000 H   0  0  0  0  0  0  0  0  0  0  0  0
   -1.6595   -2.7826    0.0000 H   0  0  0  0  0  0  0  0  0  0  0  0
   -2.1801   -1.0758    0.0000 H   0  0  0  0  0  0  0  0  0  0  0  0
    1.6072   -3.3365    0.0000 H   0  0  0  0  0  0  0  0  0  0  0  0
    1.2987   -1.5790    0.0000 H   0  0  0  0  0  0  0  0  0  0  0  0
   -1.6205   -4.4533    0.0000 H   0  0  0  0  0  0  0  0  0  0  0  0
    1.4747   -7.7197    0.0000 H   0  0  0  0  0  0  0  0  0  0  0  0
   -1.0159   -6.9800    0.0000 H   0  0  0  0  0  0  0  0  0  0  0  0
    3.3606   -5.9327    0.0000 H   0  0  0  0  0  0  0  0  0  0  0  0
    2.7559   -3.4060    0.0000 H   0  0  0  0  0  0  0  0  0  0  0  0
    1.4945   -0.3691    0.0000 H   0  0  0  0  0  0  0  0  0  0  0  0
    1.4419    3.0218    0.0000 H   0  0  0  0  0  0  0  0  0  0  0  0
    3.7938    4.5761    0.0000 H   0  0  0  0  0  0  0  0  0  0  0  0
    1.9025    3.4638    0.0000 H   0  0  0  0  0  0  0  0  0  0  0  0
    7.2374    4.3672    0.0000 H   0  0  0  0  0  0  0  0  0  0  0  0
    5.0007    5.4849    0.0000 H   0  0  0  0  0  0  0  0  0  0  0  0
    5.1597    3.5869    0.0000 H   0  0  0  0  0  0  0  0  0  0  0  0
    5.2956    0.0326    0.0000 H   0  0  0  0  0  0  0  0  0  0  0  0
    5.9624   -1.2783    0.0000 H   0  0  0  0  0  0  0  0  0  0  0  0
    6.1966   -1.8576    0.0000 H   0  0  0  0  0  0  0  0  0  0  0  0
    6.9907   -2.6769    0.0000 H   0  0  0  0  0  0  0  0  0  0  0  0
    7.4513   -3.0749    0.0000 H   0  0  0  0  0  0  0  0  0  0  0  0
    8.7406   -3.7824    0.0000 H   0  0  0  0  0  0  0  0  0  0  0  0
    9.7075   -4.3331    0.0000 H   0  0  0  0  0  0  0  0  0  0  0  0
    5.0806   -1.0441    0.0000 H   0  0  0  0  0  0  0  0  0  0  0  0
    3.9172   -0.1755    0.0000 H   0  0  0  0  0  0  0  0  0  0  0  0
    4.2525    1.5962    0.0000 H   0  0  0  0  0  0  0  0  0  0  0  0
    5.8509    5.3364    0.0000 H   0  0  0  0  0  0  0  0  0  0  0  0
    6.3655    5.6757    0.0000 H   0  0  0  0  0  0  0  0  0  0  0  0
    7.9341    8.4545    0.0000 H   0  0  0  0  0  0  0  0  0  0  0  0
    8.9882    7.4197    0.0000 H   0  0  0  0  0  0  0  0  0  0  0  0
    5.9118    5.9826    0.0000 H   0  0  0  0  0  0  0  0  0  0  0  0
    4.4473    9.5685    0.0000 H   0  0  0  0  0  0  0  0  0  0  0  0
    6.0151   10.4207    0.0000 H   0  0  0  0  0  0  0  0  0  0  0  0
    7.2885    9.1707    0.0000 H   0  0  0  0  0  0  0  0  0  0  0  0
    3.6761    8.5802    0.0000 H   0  0  0  0  0  0  0  0  0  0  0  0
    3.2302    6.8524    0.0000 H   0  0  0  0  0  0  0  0  0  0  0  0
    4.7522    5.9208    0.0000 H   0  0  0  0  0  0  0  0  0  0  0  0
   10.2087    8.3937    0.0000 H   0  0  0  0  0  0  0  0  0  0  0  0
   11.3187    8.3170    0.0000 H   0  0  0  0  0  0  0  0  0  0  0  0
   14.2269    8.8952    0.0000 H   0  0  0  0  0  0  0  0  0  0  0  0
   14.1585    7.2628    0.0000 H   0  0  0  0  0  0  0  0  0  0  0  0
   13.3600   10.6948    0.0000 H   0  0  0  0  0  0  0  0  0  0  0  0
   15.6810    6.9159    0.0000 H   0  0  0  0  0  0  0  0  0  0  0  0
   16.1428    6.0677    0.0000 H   0  0  0  0  0  0  0  0  0  0  0  0
   18.5029    3.9201    0.0000 H   0  0  0  0  0  0  0  0  0  0  0  0
   17.2595    3.1226    0.0000 H   0  0  0  0  0  0  0  0  0  0  0  0
   18.2268    7.3817    0.0000 H   0  0  0  0  0  0  0  0  0  0  0  0
   16.6185    6.6086    0.0000 H   0  0  0  0  0  0  0  0  0  0  0  0
   20.8469    5.3534    0.0000 H   0  0  0  0  0  0  0  0  0  0  0  0
   19.3448    4.3901    0.0000 H   0  0  0  0  0  0  0  0  0  0  0  0
   19.4824    8.4846    0.0000 H   0  0  0  0  0  0  0  0  0  0  0  0
   23.9819    8.4196    0.0000 H   0  0  0  0  0  0  0  0  0  0  0  0
   21.7509    9.7510    0.0000 H   0  0  0  0  0  0  0  0  0  0  0  0
   23.9444    5.8218    0.0000 H   0  0  0  0  0  0  0  0  0  0  0  0
   21.6759    4.5554    0.0000 H   0  0  0  0  0  0  0  0  0  0  0  0
   17.9376    1.7160    0.0000 H   0  0  0  0  0  0  0  0  0  0  0  0
   15.9812   -2.4271    0.0000 H   0  0  0  0  0  0  0  0  0  0  0  0
   16.8825   -1.4788    0.0000 H   0  0  0  0  0  0  0  0  0  0  0  0
   14.6630   -3.5567    0.0000 H   0  0  0  0  0  0  0  0  0  0  0  0
   15.6220   -2.9383    0.0000 H   0  0  0  0  0  0  0  0  0  0  0  0
   12.7083   -4.2373    0.0000 H   0  0  0  0  0  0  0  0  0  0  0  0
   14.1243   -3.8400    0.0000 H   0  0  0  0  0  0  0  0  0  0  0  0
   11.6419   -4.5549    0.0000 H   0  0  0  0  0  0  0  0  0  0  0  0
   18.8803   -0.1559    0.0000 H   0  0  0  0  0  0  0  0  0  0  0  0
   18.7570    1.6243    0.0000 H   0  0  0  0  0  0  0  0  0  0  0  0
   17.3693    2.1305    0.0000 H   0  0  0  0  0  0  0  0  0  0  0  0
   19.2946    0.6264    0.0000 H   0  0  0  0  0  0  0  0  0  0  0  0
   18.1522   -2.5666    0.0000 H   0  0  0  0  0  0  0  0  0  0  0  0
   20.7036   -4.5862    0.0000 H   0  0  0  0  0  0  0  0  0  0  0  0
   21.3939   -2.9407    0.0000 H   0  0  0  0  0  0  0  0  0  0  0  0
   20.6011   -6.4920    0.0000 H   0  0  0  0  0  0  0  0  0  0  0  0
   17.7677   -8.1111    0.0000 H   0  0  0  0  0  0  0  0  0  0  0  0
   15.3523   -5.9167    0.0000 H   0  0  0  0  0  0  0  0  0  0  0  0
   21.4896   -4.2995    0.0000 H   0  0  0  0  0  0  0  0  0  0  0  0
   22.9134   -1.2216    0.0000 H   0  0  0  0  0  0  0  0  0  0  0  0
   25.7067   -0.8417    0.0000 H   0  0  0  0  0  0  0  0  0  0  0  0
   23.7799   -0.7658    0.0000 H   0  0  0  0  0  0  0  0  0  0  0  0
   27.7292   -0.7429    0.0000 H   0  0  0  0  0  0  0  0  0  0  0  0
   29.8157   -3.2521    0.0000 H   0  0  0  0  0  0  0  0  0  0  0  0
   28.2398   -5.9337    0.0000 H   0  0  0  0  0  0  0  0  0  0  0  0
   26.6622   -2.4246    0.0000 H   0  0  0  0  0  0  0  0  0  0  0  0
   25.3657   -5.5186    0.0000 H   0  0  0  0  0  0  0  0  0  0  0  0
   27.9172   -7.5381    0.0000 H   0  0  0  0  0  0  0  0  0  0  0  0
   28.6401   -6.0729    0.0000 H   0  0  0  0  0  0  0  0  0  0  0  0
   26.5990   -8.7878    0.0000 H   0  0  0  0  0  0  0  0  0  0  0  0
   28.7032   -7.2514    0.0000 H   0  0  0  0  0  0  0  0  0  0  0  0
   30.1270   -4.1735    0.0000 H   0  0  0  0  0  0  0  0  0  0  0  0
   30.9935   -3.7177    0.0000 H   0  0  0  0  0  0  0  0  0  0  0  0
   34.4140   -3.9310    0.0000 H   0  0  0  0  0  0  0  0  0  0  0  0
   34.5830   -5.1731    0.0000 H   0  0  0  0  0  0  0  0  0  0  0  0
   34.0984   -6.8905    0.0000 H   0  0  0  0  0  0  0  0  0  0  0  0
   32.6365   -7.1024    0.0000 H   0  0  0  0  0  0  0  0  0  0  0  0
  1  2  1  0
  2  3  1  0
  3  4  2  0
  4  5  1  0
  5  6  2  0
  6  7  1  0
  7  8  2  0
  7  9  1  0
  9 10  1  0
 10 11  1  0
 11 12  2  0
  9 13  1  0
 13 14  1  0
 14 15  2  0
 15 16  1  0
 16 17  2  0
 17 18  1  0
 16 19  1  0
 14 20  1  0
 20 21  1  0
 21 22  2  0
 22 23  1  0
 23 24  2  0
 24 25  1  0
 25 26  2  0
 25 27  1  0
  1 28  2  0
  1 29  1  0
 29 30  1  0
 30 31  1  0
 31 32  1  0
 32 33  2  0
 32 34  1  0
 34 35  1  0
 35 36  1  0
 36 37  1  0
 37 38  1  0
 38 39  2  0
 38 40  1  0
 35 41  1  0
 41 42  2  0
 41 43  1  0
 43 44  1  0
 44 45  1  0
 45 46  1  0
 46 47  1  0
 47 48  1  0
 48 49  1  0
 49 50  2  3
 49 51  1  0
 44 52  1  0
 52 53  2  0
 52 54  1  0
 54 55  1  0
 55 56  1  0
 56 57  1  0
 57 58  1  0
 57 59  1  0
 55 60  1  0
 60 61  2  0
 60 62  1  0
 62 63  1  0
 63 64  1  0
 64 65  1  0
 65 66  1  0
 66 67  1  0
 67 68  1  0
 68 69  2  3
 68 70  1  0
 63 71  1  0
 71 72  2  0
 71 73  1  0
 73 74  1  0
 74 75  1  0
 75 76  1  0
 76 77  1  0
 77 78  1  0
 78 79  1  0
 79 80  2  3
 79 81  1  0
 74 82  1  0
 82 83  2  0
 82 84  1  0
 84 85  1  0
 85 86  1  0
 86 87  1  0
 87 88  1  0
 88 89  1  0
 89 90  1  0
 90 91  2  3
 90 92  1  0
 85 93  1  0
 93 94  2  0
 93 95  1  0
 95 96  1  0
 96 97  1  0
 97 98  1  0
 98 99  1  0
 98100  2  0
 96101  1  0
101102  2  0
101103  1  0
104103  1  6
104105  1  0
105106  1  0
106107  1  0
107108  1  0
104109  1  0
104110  1  0
110111  2  0
110112  1  0
112113  1  0
113114  1  0
114115  1  0
115116  1  0
115117  1  0
113118  1  0
118119  2  0
118120  1  0
120121  1  0
121122  1  0
122123  1  0
121124  1  0
124125  2  0
124126  1  0
126127  1  0
127128  1  0
128129  1  0
129130  1  0
130131  1  0
131132  1  0
132133  2  3
132134  1  0
127135  1  0
135136  2  0
135137  1  0
137138  1  0
138139  1  0
139140  1  0
140141  1  0
141142  1  0
138143  1  0
138144  1  6
144145  2  0
144146  1  0
146147  1  0
147148  1  0
148149  1  0
149150  2  0
150151  1  0
151152  1  0
152153  2  0
147154  1  0
154155  2  0
154156  1  0
156157  1  0
157158  1  0
158159  1  0
159160  2  0
160161  1  0
161162  1  0
162163  2  0
157164  1  0
164165  2  0
164166  1  0
166167  1  0
167168  1  0
168169  1  0
167170  1  0
170171  2  0
170172  1  0
172173  1  0
173174  1  0
174175  1  0
174176  1  0
173177  1  0
177178  2  0
177179  1  0
  8  3  1  0
153149  1  0
163159  1  0
 11  6  1  0
108142  2  0
 18 13  2  0
 22  9  1  0
 26 21  1  0
  2180  1  0
  4181  1  0
  5182  1  0
  8183  1  0
 15184  1  0
 17185  1  0
 18186  1  0
 19187  1  0
 23188  1  0
 24189  1  0
 26190  1  0
 27191  1  0
 29192  1  0
 30193  1  0
 30194  1  0
 31195  1  0
 31196  1  0
 34197  1  0
 35198  1  1
 36199  1  0
 36200  1  0
 37201  1  0
 37202  1  0
 43203  1  0
 44204  1  6
 45205  1  0
 45206  1  0
 46207  1  0
 46208  1  0
 47209  1  0
 47210  1  0
 48211  1  0
 50212  1  0
 50213  1  0
 51214  1  0
 51215  1  0
 54216  1  0
 55217  1  1
 56218  1  0
 56219  1  0
 57220  1  0
 58221  1  0
 58222  1  0
 58223  1  0
 59224  1  0
 59225  1  0
 59226  1  0
 62227  1  0
 63228  1  6
 64229  1  0
 64230  1  0
 65231  1  0
 65232  1  0
 66233  1  0
 66234  1  0
 67235  1  0
 69236  1  0
 69237  1  0
 70238  1  0
 70239  1  0
 73240  1  0
 74241  1  1
 75242  1  0
 75243  1  0
 76244  1  0
 76245  1  0
 77246  1  0
 77247  1  0
 78248  1  0
 80249  1  0
 80250  1  0
 81251  1  0
 81252  1  0
 84253  1  0
 85254  1  6
 86255  1  0
 86256  1  0
 87257  1  0
 87258  1  0
 88259  1  0
 88260  1  0
 89261  1  0
 91262  1  0
 91263  1  0
 92264  1  0
 92265  1  0
 95266  1  0
 96267  1  6
 97268  1  0
 97269  1  0
 99270  1  0
 99271  1  0
103272  1  0
105273  1  0
105274  1  0
106275  1  0
106276  1  0
107277  1  0
107278  1  0
108279  1  0
109280  1  0
109281  1  0
109282  1  0
112283  1  0
113284  1  1
114285  1  0
114286  1  0
115287  1  0
116288  1  0
116289  1  0
116290  1  0
117291  1  0
117292  1  0
117293  1  0
120294  1  0
121295  1  1
122296  1  0
122297  1  0
123298  1  0
126299  1  0
127300  1  1
128301  1  0
128302  1  0
129303  1  0
129304  1  0
130305  1  0
130306  1  0
131307  1  0
133308  1  0
133309  1  0
134310  1  0
134311  1  0
137312  1  0
139313  1  0
139314  1  0
140315  1  0
140316  1  0
141317  1  0
141318  1  0
142319  1  0
143320  1  0
143321  1  0
143322  1  0
146323  1  0
147324  1  6
148325  1  0
148326  1  0
150327  1  0
151328  1  0
152329  1  0
156330  1  0
157331  1  1
158332  1  0
158333  1  0
160334  1  0
161335  1  0
162336  1  0
166337  1  0
167338  1  6
168339  1  0
168340  1  0
169341  1  0
172342  1  0
173343  1  1
174344  1  1
175345  1  0
176346  1  0
176347  1  0
176348  1  0
M  CHG  7  40  -1  50   1  69   1  80   1  91   1 133   1 179  -1
M  END
