
     RDKit          2D

319323  0  0  0  0  0  0  0  0999 V2000
  -24.9497    5.7878    0.0000 N   0  0  0  0  0  0  0  0  0  0  0  0
  -23.8524    4.7651    0.0000 C   0  0  0  0  0  0  0  0  0  0  0  0
  -22.4181    5.2042    0.0000 C   0  0  0  0  0  0  0  0  0  0  0  0
  -21.3207    4.1816    0.0000 C   0  0  0  0  0  0  0  0  0  0  0  0
  -21.6576    2.7199    0.0000 O   0  0  0  0  0  0  0  0  0  0  0  0
  -19.8864    4.6206    0.0000 N   0  0  0  0  0  0  0  0  0  0  0  0
  -18.7890    3.5980    0.0000 C   0  0  0  0  0  0  0  0  0  0  0  0
  -17.9725    4.8562    0.0000 C   0  0  0  0  0  0  0  0  0  0  0  0
  -18.6539    6.1925    0.0000 C   0  0  0  0  0  0  0  0  0  0  0  0
  -17.8374    7.4508    0.0000 C   0  0  0  0  0  0  0  0  0  0  0  0
  -18.5188    8.7871    0.0000 O   0  0  0  0  0  0  0  0  0  0  0  0
  -16.3394    7.3728    0.0000 O   0  0  0  0  0  0  0  0  0  0  0  0
  -18.1076    2.2617    0.0000 C   0  0  0  0  0  0  0  0  0  0  0  0
  -16.6096    2.1837    0.0000 O   0  0  0  0  0  0  0  0  0  0  0  0
  -18.9241    1.0034    0.0000 N   0  0  0  0  0  0  0  0  0  0  0  0
  -18.2427   -0.3329    0.0000 C   0  0  0  0  0  0  0  0  0  0  0  0
  -19.6770   -0.7719    0.0000 C   0  0  0  0  0  0  0  0  0  0  0  0
  -20.7744    0.2507    0.0000 C   0  0  0  0  0  0  0  0  0  0  0  0
  -22.2087   -0.1883    0.0000 C   0  0  0  0  0  0  0  0  0  0  0  0
  -23.3060    0.8343    0.0000 N   0  0  0  0  0  0  0  0  0  0  0  0
  -24.7403    0.3953    0.0000 C   0  0  0  0  0  0  0  0  0  0  0  0
  -25.8377    1.4179    0.0000 N   0  0  0  0  0  0  0  0  0  0  0  0
  -25.0773   -1.0664    0.0000 N   0  0  0  0  0  0  0  0  0  0  0  0
  -17.1453   -1.3555    0.0000 C   0  0  0  0  0  0  0  0  0  0  0  0
  -17.6579   -2.7652    0.0000 O   0  0  0  0  0  0  0  0  0  0  0  0
  -15.7110   -0.9165    0.0000 N   0  0  0  0  0  0  0  0  0  0  0  0
  -14.6136   -1.9391    0.0000 C   0  0  0  0  0  0  0  0  0  0  0  0
  -15.8113   -2.8422    0.0000 C   0  0  0  0  0  0  0  0  0  0  0  0
  -15.6280   -4.3310    0.0000 C   0  0  0  0  0  0  0  0  0  0  0  0
  -14.3158   -5.0578    0.0000 C   0  0  0  0  0  0  0  0  0  0  0  0
  -14.6015   -6.5303    0.0000 N   0  0  0  0  0  0  0  0  0  0  0  0
  -16.0903   -6.7136    0.0000 C   0  0  0  0  0  0  0  0  0  0  0  0
  -16.9502   -7.9426    0.0000 C   0  0  0  0  0  0  0  0  0  0  0  0
  -18.4446   -7.8124    0.0000 C   0  0  0  0  0  0  0  0  0  0  0  0
  -19.0789   -6.4531    0.0000 C   0  0  0  0  0  0  0  0  0  0  0  0
  -18.2190   -5.2241    0.0000 C   0  0  0  0  0  0  0  0  0  0  0  0
  -16.7247   -5.3544    0.0000 C   0  0  0  0  0  0  0  0  0  0  0  0
  -13.2327   -2.5247    0.0000 C   0  0  0  0  0  0  0  0  0  0  0  0
  -13.0494   -4.0135    0.0000 O   0  0  0  0  0  0  0  0  0  0  0  0
  -12.0350   -1.6216    0.0000 N   0  0  0  0  0  0  0  0  0  0  0  0
  -10.6541   -2.2073    0.0000 C   0  0  0  0  0  0  0  0  0  0  0  0
  -11.4706   -3.4655    0.0000 C   0  0  0  0  0  0  0  0  0  0  0  0
  -10.7892   -4.8018    0.0000 C   0  0  0  0  0  0  0  0  0  0  0  0
  -11.6057   -6.0601    0.0000 C   0  0  0  0  0  0  0  0  0  0  0  0
  -10.9243   -7.3964    0.0000 N   0  0  0  0  0  0  0  0  0  0  0  0
  -11.7408   -8.6547    0.0000 C   0  0  0  0  0  0  0  0  0  0  0  0
  -11.0594   -9.9909    0.0000 N   0  0  0  0  0  0  0  0  0  0  0  0
  -13.2388   -8.5766    0.0000 N   0  0  0  0  0  0  0  0  0  0  0  0
   -9.1561   -2.2853    0.0000 C   0  0  0  0  0  0  0  0  0  0  0  0
   -8.6426   -3.6946    0.0000 O   0  0  0  0  0  0  0  0  0  0  0  0
   -8.3395   -1.0270    0.0000 N   0  0  0  0  0  0  0  0  0  0  0  0
   -6.8416   -1.1050    0.0000 C   0  0  0  0  0  0  0  0  0  0  0  0
   -7.1785   -2.5666    0.0000 C   0  0  0  0  0  0  0  0  0  0  0  0
   -6.0811   -3.5893    0.0000 C   0  0  0  0  0  0  0  0  0  0  0  0
   -6.4181   -5.0509    0.0000 C   0  0  0  0  0  0  0  0  0  0  0  0
   -5.3207   -6.0736    0.0000 N   0  0  0  0  0  0  0  0  0  0  0  0
   -5.6576   -7.5352    0.0000 C   0  0  0  0  0  0  0  0  0  0  0  0
   -4.5603   -8.5579    0.0000 N   0  0  0  0  0  0  0  0  0  0  0  0
   -7.0920   -7.9743    0.0000 N   0  0  0  0  0  0  0  0  0  0  0  0
   -5.4073   -0.6659    0.0000 C   0  0  0  0  0  0  0  0  0  0  0  0
   -4.4427   -1.8147    0.0000 O   0  0  0  0  0  0  0  0  0  0  0  0
   -5.0703    0.7957    0.0000 N   0  0  0  0  0  0  0  0  0  0  0  0
   -3.6360    1.2348    0.0000 C   0  0  0  0  0  0  0  0  0  0  0  0
   -3.4527   -0.2540    0.0000 C   0  0  0  0  0  0  0  0  0  0  0  0
   -2.0718   -0.8396    0.0000 C   0  0  0  0  0  0  0  0  0  0  0  0
   -1.8885   -2.3284    0.0000 C   0  0  0  0  0  0  0  0  0  0  0  0
   -0.5075   -2.9140    0.0000 N   0  0  0  0  0  0  0  0  0  0  0  0
   -0.3242   -4.4028    0.0000 C   0  0  0  0  0  0  0  0  0  0  0  0
    1.0567   -4.9884    0.0000 N   0  0  0  0  0  0  0  0  0  0  0  0
   -1.5219   -5.3059    0.0000 N   0  0  0  0  0  0  0  0  0  0  0  0
   -2.4384    2.1379    0.0000 C   0  0  0  0  0  0  0  0  0  0  0  0
   -1.0574    1.5523    0.0000 O   0  0  0  0  0  0  0  0  0  0  0  0
   -2.6217    3.6266    0.0000 N   0  0  0  0  0  0  0  0  0  0  0  0
   -1.4240    4.5298    0.0000 C   0  0  0  0  0  0  0  0  0  0  0  0
   -2.5214    5.5524    0.0000 C   0  0  0  0  0  0  0  0  0  0  0  0
   -2.0088    6.9621    0.0000 C   0  0  0  0  0  0  0  0  0  0  0  0
   -3.9023    6.1380    0.0000 C   0  0  0  0  0  0  0  0  0  0  0  0
   -4.0856    7.6268    0.0000 C   0  0  0  0  0  0  0  0  0  0  0  0
    0.0103    4.9688    0.0000 C   0  0  0  0  0  0  0  0  0  0  0  0
    0.1665    6.4606    0.0000 O   0  0  0  0  0  0  0  0  0  0  0  0
    1.1077    3.9462    0.0000 N   0  0  0  0  0  0  0  0  0  0  0  0
    2.5420    4.3852    0.0000 C   0  0  0  0  0  0  0  0  0  0  0  0
    2.3522    2.8973    0.0000 C   0  0  0  0  0  0  0  0  0  0  0  0
    2.6095    1.4195    0.0000 C   0  0  0  0  0  0  0  0  0  0  0  0
    3.2910    0.0832    0.0000 C   0  0  0  0  0  0  0  0  0  0  0  0
    4.3360   -0.9928    0.0000 C   0  0  0  0  0  0  0  0  0  0  0  0
    1.5519    5.5120    0.0000 C   0  0  0  0  0  0  0  0  0  0  0  0
    3.1619    5.7511    0.0000 C   0  0  0  0  0  0  0  0  0  0  0  0
    1.9036    6.5677    0.0000 O   0  0  0  0  0  0  0  0  0  0  0  0
    4.1568    6.8737    0.0000 N   0  0  0  0  0  0  0  0  0  0  0  0
    5.4384    7.6531    0.0000 C   0  0  0  0  0  0  0  0  0  0  0  0
    5.7021    9.1297    0.0000 C   0  0  0  0  0  0  0  0  0  0  0  0
    4.5551   10.0964    0.0000 C   0  0  0  0  0  0  0  0  0  0  0  0
    4.8188   11.5730    0.0000 C   0  0  0  0  0  0  0  0  0  0  0  0
    3.1467   10.6124    0.0000 C   0  0  0  0  0  0  0  0  0  0  0  0
    6.8928    8.0201    0.0000 C   0  0  0  0  0  0  0  0  0  0  0  0
    6.7467    9.5129    0.0000 O   0  0  0  0  0  0  0  0  0  0  0  0
    8.3908    7.9420    0.0000 N   0  0  0  0  0  0  0  0  0  0  0  0
    9.7992    7.4260    0.0000 C   0  0  0  0  0  0  0  0  0  0  0  0
   11.1181    8.1405    0.0000 C   0  0  0  0  0  0  0  0  0  0  0  0
   11.1588    9.6400    0.0000 S   0  0  0  0  0  0  0  0  0  0  0  0
   10.9930    6.5177    0.0000 C   0  0  0  0  0  0  0  0  0  0  0  0
   12.0690    7.5627    0.0000 O   0  0  0  0  0  0  0  0  0  0  0  0
   11.8660    5.2979    0.0000 N   0  0  0  0  0  0  0  0  0  0  0  0
   12.3406    3.8750    0.0000 C   0  0  0  0  0  0  0  0  0  0  0  0
   13.7216    3.2893    0.0000 C   0  0  0  0  0  0  0  0  0  0  0  0
   14.9192    4.1925    0.0000 C   0  0  0  0  0  0  0  0  0  0  0  0
   16.3002    3.6068    0.0000 C   0  0  0  0  0  0  0  0  0  0  0  0
   17.4978    4.5100    0.0000 N   0  0  0  0  0  0  0  0  0  0  0  0
   18.8788    3.9243    0.0000 C   0  0  0  0  0  0  0  0  0  0  0  0
   20.0764    4.8274    0.0000 N   0  0  0  0  0  0  0  0  0  0  0  0
   19.0621    2.4356    0.0000 N   0  0  0  0  0  0  0  0  0  0  0  0
   12.3748    2.3754    0.0000 C   0  0  0  0  0  0  0  0  0  0  0  0
   13.8627    2.1856    0.0000 O   0  0  0  0  0  0  0  0  0  0  0  0
   11.9654    0.9323    0.0000 N   0  0  0  0  0  0  0  0  0  0  0  0
   11.1489   -0.3260    0.0000 C   0  0  0  0  0  0  0  0  0  0  0  0
    9.9977   -1.2877    0.0000 C   0  0  0  0  0  0  0  0  0  0  0  0
    8.6143   -1.8673    0.0000 C   0  0  0  0  0  0  0  0  0  0  0  0
    7.1214   -2.0135    0.0000 C   0  0  0  0  0  0  0  0  0  0  0  0
    5.6518   -1.7131    0.0000 C   0  0  0  0  0  0  0  0  0  0  0  0
   12.6316   -0.5527    0.0000 C   0  0  0  0  0  0  0  0  0  0  0  0
   11.5520   -1.7708    0.0000 C   0  0  0  0  0  0  0  0  0  0  0  0
   10.7928   -3.0645    0.0000 O   0  0  0  0  0  0  0  0  0  0  0  0
   13.0048   -2.1441    0.0000 N   0  0  0  0  0  0  0  0  0  0  0  0
   13.4080   -3.5889    0.0000 C   0  0  0  0  0  0  0  0  0  0  0  0
   13.2926   -5.0844    0.0000 C   0  0  0  0  0  0  0  0  0  0  0  0
   11.9398   -5.7323    0.0000 C   0  0  0  0  0  0  0  0  0  0  0  0
   11.6688   -7.2076    0.0000 C   0  0  0  0  0  0  0  0  0  0  0  0
   10.1819   -7.4058    0.0000 N   0  0  0  0  0  0  0  0  0  0  0  0
    9.5340   -6.0529    0.0000 C   0  0  0  0  0  0  0  0  0  0  0  0
   10.6204   -5.0187    0.0000 N   0  0  0  0  0  0  0  0  0  0  0  0
   14.8608   -3.9621    0.0000 C   0  0  0  0  0  0  0  0  0  0  0  0
   15.4370   -5.3470    0.0000 O   0  0  0  0  0  0  0  0  0  0  0  0
   15.9105   -2.8906    0.0000 N   0  0  0  0  0  0  0  0  0  0  0  0
   17.3633   -3.2639    0.0000 C   0  0  0  0  0  0  0  0  0  0  0  0
   18.6008   -4.1115    0.0000 C   0  0  0  0  0  0  0  0  0  0  0  0
   18.4855   -5.6071    0.0000 C   0  0  0  0  0  0  0  0  0  0  0  0
   19.6276   -6.5795    0.0000 C   0  0  0  0  0  0  0  0  0  0  0  0
   19.0558   -7.9662    0.0000 N   0  0  0  0  0  0  0  0  0  0  0  0
   17.5602   -7.8509    0.0000 C   0  0  0  0  0  0  0  0  0  0  0  0
   17.2078   -6.3929    0.0000 N   0  0  0  0  0  0  0  0  0  0  0  0
   18.4129   -2.1923    0.0000 C   0  0  0  0  0  0  0  0  0  0  0  0
   18.0098   -0.7475    0.0000 O   0  0  0  0  0  0  0  0  0  0  0  0
   19.8658   -2.5656    0.0000 N   0  0  0  0  0  0  0  0  0  0  0  0
   20.9154   -1.4941    0.0000 C   0  0  0  0  0  0  0  0  0  0  0  0
   21.5353   -0.1281    0.0000 C   0  0  0  0  0  0  0  0  0  0  0  0
   22.9992    0.1989    0.0000 O   0  0  0  0  0  0  0  0  0  0  0  0
   22.3682   -1.8673    0.0000 C   0  0  0  0  0  0  0  0  0  0  0  0
   23.5407   -0.9317    0.0000 O   0  0  0  0  0  0  0  0  0  0  0  0
   22.7714   -3.3122    0.0000 N   0  0  0  0  0  0  0  0  0  0  0  0
   24.2242   -3.6854    0.0000 C   0  0  0  0  0  0  0  0  0  0  0  0
   25.7171   -3.5393    0.0000 C   0  0  0  0  0  0  0  0  0  0  0  0
   27.1699   -3.9126    0.0000 O   0  0  0  0  0  0  0  0  0  0  0  0
   26.3369   -2.1734    0.0000 C   0  0  0  0  0  0  0  0  0  0  0  0
   24.6273   -5.1302    0.0000 C   0  0  0  0  0  0  0  0  0  0  0  0
   26.0238   -5.6778    0.0000 O   0  0  0  0  0  0  0  0  0  0  0  0
   23.5777   -6.2018    0.0000 O   0  0  0  0  0  0  0  0  0  0  0  0
  -26.3840    5.3487    0.0000 H   0  0  0  0  0  0  0  0  0  0  0  0
  -24.6128    7.2494    0.0000 H   0  0  0  0  0  0  0  0  0  0  0  0
  -25.0500    3.8620    0.0000 H   0  0  0  0  0  0  0  0  0  0  0  0
  -23.1709    3.4289    0.0000 H   0  0  0  0  0  0  0  0  0  0  0  0
  -23.0995    6.5405    0.0000 H   0  0  0  0  0  0  0  0  0  0  0  0
  -21.2204    6.1073    0.0000 H   0  0  0  0  0  0  0  0  0  0  0  0
  -19.8033    5.4134    0.0000 H   0  0  0  0  0  0  0  0  0  0  0  0
  -19.9866    2.6948    0.0000 H   0  0  0  0  0  0  0  0  0  0  0  0
  -16.7748    5.7594    0.0000 H   0  0  0  0  0  0  0  0  0  0  0  0
  -16.8751    3.8336    0.0000 H   0  0  0  0  0  0  0  0  0  0  0  0
  -19.7513    7.2152    0.0000 H   0  0  0  0  0  0  0  0  0  0  0  0
  -19.5053    5.9482    0.0000 H   0  0  0  0  0  0  0  0  0  0  0  0
  -20.4014    1.2634    0.0000 H   0  0  0  0  0  0  0  0  0  0  0  0
  -17.0450    0.5702    0.0000 H   0  0  0  0  0  0  0  0  0  0  0  0
  -20.7556   -1.8143    0.0000 H   0  0  0  0  0  0  0  0  0  0  0  0
  -18.9955   -2.1082    0.0000 H   0  0  0  0  0  0  0  0  0  0  0  0
  -21.4558    1.5870    0.0000 H   0  0  0  0  0  0  0  0  0  0  0  0
  -19.9800    1.5231    0.0000 H   0  0  0  0  0  0  0  0  0  0  0  0
  -23.4063   -1.0914    0.0000 H   0  0  0  0  0  0  0  0  0  0  0  0
  -21.6952   -1.5977    0.0000 H   0  0  0  0  0  0  0  0  0  0  0  0
  -22.9691    2.2960    0.0000 H   0  0  0  0  0  0  0  0  0  0  0  0
  -27.2720    0.9789    0.0000 H   0  0  0  0  0  0  0  0  0  0  0  0
  -25.5008    2.8796    0.0000 H   0  0  0  0  0  0  0  0  0  0  0  0
  -26.5116   -1.5054    0.0000 H   0  0  0  0  0  0  0  0  0  0  0  0
  -23.9799   -2.0890    0.0000 H   0  0  0  0  0  0  0  0  0  0  0  0
  -15.3740    0.5452    0.0000 H   0  0  0  0  0  0  0  0  0  0  0  0
  -13.7971   -0.6808    0.0000 H   0  0  0  0  0  0  0  0  0  0  0  0
  -17.1814   -3.4528    0.0000 H   0  0  0  0  0  0  0  0  0  0  0  0
  -16.7958   -1.7105    0.0000 H   0  0  0  0  0  0  0  0  0  0  0  0
  -12.8893   -4.5938    0.0000 H   0  0  0  0  0  0  0  0  0  0  0  0
  -13.4521   -7.4941    0.0000 H   0  0  0  0  0  0  0  0  0  0  0  0
  -16.3158   -9.3019    0.0000 H   0  0  0  0  0  0  0  0  0  0  0  0
  -19.3045   -9.0414    0.0000 H   0  0  0  0  0  0  0  0  0  0  0  0
  -20.5733   -6.3229    0.0000 H   0  0  0  0  0  0  0  0  0  0  0  0
  -18.8534   -3.8649    0.0000 H   0  0  0  0  0  0  0  0  0  0  0  0
  -12.2183   -0.1329    0.0000 H   0  0  0  0  0  0  0  0  0  0  0  0
  -10.3171   -0.7456    0.0000 H   0  0  0  0  0  0  0  0  0  0  0  0
  -12.5492   -4.5079    0.0000 H   0  0  0  0  0  0  0  0  0  0  0  0
  -12.7828   -2.7388    0.0000 H   0  0  0  0  0  0  0  0  0  0  0  0
   -9.6918   -5.8244    0.0000 H   0  0  0  0  0  0  0  0  0  0  0  0
   -9.5915   -3.8987    0.0000 H   0  0  0  0  0  0  0  0  0  0  0  0
  -12.8033   -6.9632    0.0000 H   0  0  0  0  0  0  0  0  0  0  0  0
  -12.7031   -5.0375    0.0000 H   0  0  0  0  0  0  0  0  0  0  0  0
   -9.4263   -7.4744    0.0000 H   0  0  0  0  0  0  0  0  0  0  0  0
  -11.8759  -11.2492    0.0000 H   0  0  0  0  0  0  0  0  0  0  0  0
   -9.5614  -10.0689    0.0000 H   0  0  0  0  0  0  0  0  0  0  0  0
  -14.0553   -9.8349    0.0000 H   0  0  0  0  0  0  0  0  0  0  0  0
  -13.7522   -7.1673    0.0000 H   0  0  0  0  0  0  0  0  0  0  0  0
   -9.0210    0.3093    0.0000 H   0  0  0  0  0  0  0  0  0  0  0  0
   -7.0249    0.3838    0.0000 H   0  0  0  0  0  0  0  0  0  0  0  0
   -7.9951   -3.8249    0.0000 H   0  0  0  0  0  0  0  0  0  0  0  0
   -8.6601   -2.3326    0.0000 H   0  0  0  0  0  0  0  0  0  0  0  0
   -4.7002   -4.1749    0.0000 H   0  0  0  0  0  0  0  0  0  0  0  0
   -5.2646   -2.3310    0.0000 H   0  0  0  0  0  0  0  0  0  0  0  0
   -7.2346   -6.3092    0.0000 H   0  0  0  0  0  0  0  0  0  0  0  0
   -7.8601   -4.6380    0.0000 H   0  0  0  0  0  0  0  0  0  0  0  0
   -3.8864   -5.6345    0.0000 H   0  0  0  0  0  0  0  0  0  0  0  0
   -4.8972  -10.0195    0.0000 H   0  0  0  0  0  0  0  0  0  0  0  0
   -3.1260   -8.1188    0.0000 H   0  0  0  0  0  0  0  0  0  0  0  0
   -7.4289   -9.4359    0.0000 H   0  0  0  0  0  0  0  0  0  0  0  0
   -8.1893   -6.9516    0.0000 H   0  0  0  0  0  0  0  0  0  0  0  0
   -6.1677    1.8184    0.0000 H   0  0  0  0  0  0  0  0  0  0  0  0
   -4.3175    2.5710    0.0000 H   0  0  0  0  0  0  0  0  0  0  0  0
   -3.7897   -1.7157    0.0000 H   0  0  0  0  0  0  0  0  0  0  0  0
   -4.9250   -0.5408    0.0000 H   0  0  0  0  0  0  0  0  0  0  0  0
   -0.5738   -0.9176    0.0000 H   0  0  0  0  0  0  0  0  0  0  0  0
   -1.7348    0.6220    0.0000 H   0  0  0  0  0  0  0  0  0  0  0  0
   -2.2254   -3.7901    0.0000 H   0  0  0  0  0  0  0  0  0  0  0  0
   -3.3848   -2.4336    0.0000 H   0  0  0  0  0  0  0  0  0  0  0  0
    0.6901   -2.0109    0.0000 H   0  0  0  0  0  0  0  0  0  0  0  0
    1.2400   -6.4772    0.0000 H   0  0  0  0  0  0  0  0  0  0  0  0
    2.2544   -4.0853    0.0000 H   0  0  0  0  0  0  0  0  0  0  0  0
   -1.3386   -6.7947    0.0000 H   0  0  0  0  0  0  0  0  0  0  0  0
   -2.9028   -4.7203    0.0000 H   0  0  0  0  0  0  0  0  0  0  0  0
   -4.1033    3.8607    0.0000 H   0  0  0  0  0  0  0  0  0  0  0  0
   -0.7426    3.1935    0.0000 H   0  0  0  0  0  0  0  0  0  0  0  0
   -3.4852    4.4030    0.0000 H   0  0  0  0  0  0  0  0  0  0  0  0
   -3.1413    8.1839    0.0000 H   0  0  0  0  0  0  0  0  0  0  0  0
   -1.3679    8.2723    0.0000 H   0  0  0  0  0  0  0  0  0  0  0  0
   -0.8035    6.4284    0.0000 H   0  0  0  0  0  0  0  0  0  0  0  0
   -5.4003    6.2160    0.0000 H   0  0  0  0  0  0  0  0  0  0  0  0
   -4.4149    4.7283    0.0000 H   0  0  0  0  0  0  0  0  0  0  0  0
   -5.4666    8.2124    0.0000 H   0  0  0  0  0  0  0  0  0  0  0  0
   -3.7487    9.0885    0.0000 H   0  0  0  0  0  0  0  0  0  0  0  0
   -2.6133    7.9136    0.0000 H   0  0  0  0  0  0  0  0  0  0  0  0
    0.4271    2.6095    0.0000 H   0  0  0  0  0  0  0  0  0  0  0  0
    0.9221    3.3495    0.0000 H   0  0  0  0  0  0  0  0  0  0  0  0
    1.1111    2.0550    0.0000 H   0  0  0  0  0  0  0  0  0  0  0  0
    1.1096    1.4301    0.0000 H   0  0  0  0  0  0  0  0  0  0  0  0
    1.5361    0.3718    0.0000 H   0  0  0  0  0  0  0  0  0  0  0  0
    1.8126   -0.1704    0.0000 H   0  0  0  0  0  0  0  0  0  0  0  0
    2.7399   -1.3119    0.0000 H   0  0  0  0  0  0  0  0  0  0  0  0
    3.4277   -2.1866    0.0000 H   0  0  0  0  0  0  0  0  0  0  0  0
    0.0535    5.5826    0.0000 H   0  0  0  0  0  0  0  0  0  0  0  0
    1.1813    6.9655    0.0000 H   0  0  0  0  0  0  0  0  0  0  0  0
    2.6068    6.5784    0.0000 H   0  0  0  0  0  0  0  0  0  0  0  0
    3.1951    8.0248    0.0000 H   0  0  0  0  0  0  0  0  0  0  0  0
    4.1068    8.3435    0.0000 H   0  0  0  0  0  0  0  0  0  0  0  0
    6.6074   10.3257    0.0000 H   0  0  0  0  0  0  0  0  0  0  0  0
    7.1935    8.9698    0.0000 H   0  0  0  0  0  0  0  0  0  0  0  0
    3.6498    8.9004    0.0000 H   0  0  0  0  0  0  0  0  0  0  0  0
    3.7982   12.6723    0.0000 H   0  0  0  0  0  0  0  0  0  0  0  0
    5.5716   12.8704    0.0000 H   0  0  0  0  0  0  0  0  0  0  0  0
    6.2796   11.2325    0.0000 H   0  0  0  0  0  0  0  0  0  0  0  0
    2.7112   12.0478    0.0000 H   0  0  0  0  0  0  0  0  0  0  0  0
    1.6467   10.6157    0.0000 H   0  0  0  0  0  0  0  0  0  0  0  0
    2.8830    9.1358    0.0000 H   0  0  0  0  0  0  0  0  0  0  0  0
    8.6912    9.4117    0.0000 H   0  0  0  0  0  0  0  0  0  0  0  0
    9.6904    8.9220    0.0000 H   0  0  0  0  0  0  0  0  0  0  0  0
   12.6018    8.3609    0.0000 H   0  0  0  0  0  0  0  0  0  0  0  0
   11.9230    6.8747    0.0000 H   0  0  0  0  0  0  0  0  0  0  0  0
   12.4776   10.3545    0.0000 H   0  0  0  0  0  0  0  0  0  0  0  0
   13.2022    5.9793    0.0000 H   0  0  0  0  0  0  0  0  0  0  0  0
   13.3101    5.0196    0.0000 H   0  0  0  0  0  0  0  0  0  0  0  0
   14.6861    2.1406    0.0000 H   0  0  0  0  0  0  0  0  0  0  0  0
   13.2338    1.8709    0.0000 H   0  0  0  0  0  0  0  0  0  0  0  0
   15.7358    5.4507    0.0000 H   0  0  0  0  0  0  0  0  0  0  0  0
   13.9547    5.3412    0.0000 H   0  0  0  0  0  0  0  0  0  0  0  0
   17.3976    2.5842    0.0000 H   0  0  0  0  0  0  0  0  0  0  0  0
   15.6431    2.2584    0.0000 H   0  0  0  0  0  0  0  0  0  0  0  0
   17.3145    5.9987    0.0000 H   0  0  0  0  0  0  0  0  0  0  0  0
   21.4574    4.2418    0.0000 H   0  0  0  0  0  0  0  0  0  0  0  0
   19.8931    6.3162    0.0000 H   0  0  0  0  0  0  0  0  0  0  0  0
   20.4430    1.8499    0.0000 H   0  0  0  0  0  0  0  0  0  0  0  0
   17.8644    1.5324    0.0000 H   0  0  0  0  0  0  0  0  0  0  0  0
   13.3313    0.3124    0.0000 H   0  0  0  0  0  0  0  0  0  0  0  0
    9.9571   -2.7871    0.0000 H   0  0  0  0  0  0  0  0  0  0  0  0
   11.1495   -2.2487    0.0000 H   0  0  0  0  0  0  0  0  0  0  0  0
    8.3102   -3.3362    0.0000 H   0  0  0  0  0  0  0  0  0  0  0  0
    9.4316   -3.1251    0.0000 H   0  0  0  0  0  0  0  0  0  0  0  0
    6.2431   -3.2295    0.0000 H   0  0  0  0  0  0  0  0  0  0  0  0
    7.7045   -3.3955    0.0000 H   0  0  0  0  0  0  0  0  0  0  0  0
    5.1357   -3.1215    0.0000 H   0  0  0  0  0  0  0  0  0  0  0  0
   13.4986   -1.7768    0.0000 H   0  0  0  0  0  0  0  0  0  0  0  0
   14.0557   -0.0816    0.0000 H   0  0  0  0  0  0  0  0  0  0  0  0
   12.9614    0.9106    0.0000 H   0  0  0  0  0  0  0  0  0  0  0  0
   14.1773   -1.2085    0.0000 H   0  0  0  0  0  0  0  0  0  0  0  0
   11.9151   -3.7350    0.0000 H   0  0  0  0  0  0  0  0  0  0  0  0
   13.6958   -6.5292    0.0000 H   0  0  0  0  0  0  0  0  0  0  0  0
   14.7922   -5.1214    0.0000 H   0  0  0  0  0  0  0  0  0  0  0  0
   12.7030   -8.2941    0.0000 H   0  0  0  0  0  0  0  0  0  0  0  0
    9.4683   -8.7251    0.0000 H   0  0  0  0  0  0  0  0  0  0  0  0
    8.0587   -5.7819    0.0000 H   0  0  0  0  0  0  0  0  0  0  0  0
   15.5073   -1.4458    0.0000 H   0  0  0  0  0  0  0  0  0  0  0  0
   16.7434   -4.6298    0.0000 H   0  0  0  0  0  0  0  0  0  0  0  0
   19.9973   -4.6591    0.0000 H   0  0  0  0  0  0  0  0  0  0  0  0
   19.5328   -2.9362    0.0000 H   0  0  0  0  0  0  0  0  0  0  0  0
   21.0856   -6.2270    0.0000 H   0  0  0  0  0  0  0  0  0  0  0  0
   19.8416   -9.2439    0.0000 H   0  0  0  0  0  0  0  0  0  0  0  0
   16.5879   -8.9930    0.0000 H   0  0  0  0  0  0  0  0  0  0  0  0
   20.4420   -3.9505    0.0000 H   0  0  0  0  0  0  0  0  0  0  0  0
   19.6779   -0.6464    0.0000 H   0  0  0  0  0  0  0  0  0  0  0  0
   21.6506    1.3674    0.0000 H   0  0  0  0  0  0  0  0  0  0  0  0
   20.0825    0.2451    0.0000 H   0  0  0  0  0  0  0  0  0  0  0  0
   23.6480    1.3839    0.0000 H   0  0  0  0  0  0  0  0  0  0  0  0
   21.7217   -4.3837    0.0000 H   0  0  0  0  0  0  0  0  0  0  0  0
   24.1564   -2.1870    0.0000 H   0  0  0  0  0  0  0  0  0  0  0  0
   25.7849   -5.0378    0.0000 H   0  0  0  0  0  0  0  0  0  0  0  0
   28.3423   -2.9770    0.0000 H   0  0  0  0  0  0  0  0  0  0  0  0
   27.8009   -1.8464    0.0000 H   0  0  0  0  0  0  0  0  0  0  0  0
   26.4523   -0.6778    0.0000 H   0  0  0  0  0  0  0  0  0  0  0  0
   24.9405   -1.6258    0.0000 H   0  0  0  0  0  0  0  0  0  0  0  0
  1  2  1  0
  2  3  1  0
  3  4  1  0
  4  5  2  0
  4  6  1  0
  6  7  1  0
  7  8  1  0
  8  9  1  0
  9 10  1  0
 10 11  2  0
 10 12  1  0
  7 13  1  0
 13 14  2  0
 13 15  1  0
 15 16  1  0
 16 17  1  0
 17 18  1  0
 18 19  1  0
 19 20  1  0
 20 21  1  0
 21 22  2  3
 21 23  1  0
 16 24  1  0
 24 25  2  0
 24 26  1  0
 26 27  1  0
 27 28  1  0
 28 29  1  0
 29 30  2  0
 30 31  1  0
 31 32  1  0
 32 33  2  0
 33 34  1  0
 34 35  2  0
 35 36  1  0
 36 37  2  0
 27 38  1  0
 38 39  2  0
 38 40  1  0
 40 41  1  0
 41 42  1  0
 42 43  1  0
 43 44  1  0
 44 45  1  0
 45 46  1  0
 46 47  2  3
 46 48  1  0
 41 49  1  0
 49 50  2  0
 49 51  1  0
 51 52  1  0
 52 53  1  0
 53 54  1  0
 54 55  1  0
 55 56  1  0
 56 57  1  0
 57 58  2  3
 57 59  1  0
 52 60  1  0
 60 61  2  0
 60 62  1  0
 62 63  1  0
 63 64  1  0
 64 65  1  0
 65 66  1  0
 66 67  1  0
 67 68  1  0
 68 69  2  3
 68 70  1  0
 63 71  1  0
 71 72  2  0
 71 73  1  0
 73 74  1  0
 74 75  1  0
 75 76  1  0
 75 77  1  0
 77 78  1  0
 74 79  1  0
 79 80  2  0
 79 81  1  0
 82 81  1  6
 82 83  1  0
 83 84  1  0
 84 85  1  0
 85 86  1  0
 82 87  1  0
 82 88  1  0
 88 89  2  0
 88 90  1  0
 90 91  1  0
 91 92  1  0
 92 93  1  0
 93 94  1  0
 93 95  1  0
 91 96  1  0
 96 97  2  0
 96 98  1  0
 98 99  1  0
 99100  1  0
100101  1  0
 99102  1  0
102103  2  0
102104  1  0
104105  1  0
105106  1  0
106107  1  0
107108  1  0
108109  1  0
109110  1  0
110111  2  3
110112  1  0
105113  1  0
113114  2  0
113115  1  0
115116  1  0
116117  1  0
117118  1  0
118119  1  0
119120  1  0
116121  1  0
116122  1  6
122123  2  0
122124  1  0
124125  1  0
125126  1  0
126127  1  0
127128  2  0
128129  1  0
129130  1  0
130131  2  0
125132  1  0
132133  2  0
132134  1  0
134135  1  0
135136  1  0
136137  1  0
137138  2  0
138139  1  0
139140  1  0
140141  2  0
135142  1  0
142143  2  0
142144  1  0
144145  1  0
145146  1  0
146147  1  0
145148  1  0
148149  2  0
148150  1  0
150151  1  0
151152  1  0
152153  1  0
152154  1  0
151155  1  0
155156  2  0
155157  1  0
 37 29  1  0
131127  1  0
141137  1  0
 37 32  1  0
 86120  2  0
  1158  1  0
  1159  1  0
  2160  1  0
  2161  1  0
  3162  1  0
  3163  1  0
  6164  1  0
  7165  1  1
  8166  1  0
  8167  1  0
  9168  1  0
  9169  1  0
 15170  1  0
 16171  1  6
 17172  1  0
 17173  1  0
 18174  1  0
 18175  1  0
 19176  1  0
 19177  1  0
 20178  1  0
 22179  1  0
 22180  1  0
 23181  1  0
 23182  1  0
 26183  1  0
 27184  1  6
 28185  1  0
 28186  1  0
 30187  1  0
 31188  1  0
 33189  1  0
 34190  1  0
 35191  1  0
 36192  1  0
 40193  1  0
 41194  1  6
 42195  1  0
 42196  1  0
 43197  1  0
 43198  1  0
 44199  1  0
 44200  1  0
 45201  1  0
 47202  1  0
 47203  1  0
 48204  1  0
 48205  1  0
 51206  1  0
 52207  1  6
 53208  1  0
 53209  1  0
 54210  1  0
 54211  1  0
 55212  1  0
 55213  1  0
 56214  1  0
 58215  1  0
 58216  1  0
 59217  1  0
 59218  1  0
 62219  1  0
 63220  1  6
 64221  1  0
 64222  1  0
 65223  1  0
 65224  1  0
 66225  1  0
 66226  1  0
 67227  1  0
 69228  1  0
 69229  1  0
 70230  1  0
 70231  1  0
 73232  1  0
 74233  1  1
 75234  1  1
 76235  1  0
 76236  1  0
 76237  1  0
 77238  1  0
 77239  1  0
 78240  1  0
 78241  1  0
 78242  1  0
 81243  1  0
 83244  1  0
 83245  1  0
 84246  1  0
 84247  1  0
 85248  1  0
 85249  1  0
 86250  1  0
 87251  1  0
 87252  1  0
 87253  1  0
 90254  1  0
 91255  1  1
 92256  1  0
 92257  1  0
 93258  1  0
 94259  1  0
 94260  1  0
 94261  1  0
 95262  1  0
 95263  1  0
 95264  1  0
 98265  1  0
 99266  1  1
100267  1  0
100268  1  0
101269  1  0
104270  1  0
105271  1  1
106272  1  0
106273  1  0
107274  1  0
107275  1  0
108276  1  0
108277  1  0
109278  1  0
111279  1  0
111280  1  0
112281  1  0
112282  1  0
115283  1  0
117284  1  0
117285  1  0
118286  1  0
118287  1  0
119288  1  0
119289  1  0
120290  1  0
121291  1  0
121292  1  0
121293  1  0
124294  1  0
125295  1  6
126296  1  0
126297  1  0
128298  1  0
129299  1  0
130300  1  0
134301  1  0
135302  1  6
136303  1  0
136304  1  0
138305  1  0
139306  1  0
140307  1  0
144308  1  0
145309  1  1
146310  1  0
146311  1  0
147312  1  0
150313  1  0
151314  1  1
152315  1  6
153316  1  0
154317  1  0
154318  1  0
154319  1  0
M  CHG  7  12  -1  22   1  47   1  58   1  69   1 111   1 157  -1
M  END
