
     RDKit          2D

253254  0  0  0  0  0  0  0  0999 V2000
   23.9272   -0.8692    0.0000 N   0  0  0  0  0  0  0  0  0  0  0  0
   22.4272   -0.8572    0.0000 C   0  0  0  0  0  0  0  0  0  0  0  0
   21.6668   -2.1501    0.0000 C   0  0  0  0  0  0  0  0  0  0  0  0
   20.1669   -2.1381    0.0000 C   0  0  0  0  0  0  0  0  0  0  0  0
   19.4273   -0.8331    0.0000 O   0  0  0  0  0  0  0  0  0  0  0  0
   19.4064   -3.4311    0.0000 N   0  0  0  0  0  0  0  0  0  0  0  0
   17.9065   -3.4190    0.0000 C   0  0  0  0  0  0  0  0  0  0  0  0
   18.1551   -4.8983    0.0000 C   0  0  0  0  0  0  0  0  0  0  0  0
   16.9983   -5.8532    0.0000 C   0  0  0  0  0  0  0  0  0  0  0  0
   17.2469   -7.3325    0.0000 C   0  0  0  0  0  0  0  0  0  0  0  0
   16.0902   -8.2874    0.0000 C   0  0  0  0  0  0  0  0  0  0  0  0
   14.6848   -7.7631    0.0000 C   0  0  0  0  0  0  0  0  0  0  0  0
   14.4362   -6.2838    0.0000 C   0  0  0  0  0  0  0  0  0  0  0  0
   15.5930   -5.3289    0.0000 C   0  0  0  0  0  0  0  0  0  0  0  0
   16.5011   -2.8947    0.0000 C   0  0  0  0  0  0  0  0  0  0  0  0
   15.8864   -3.4022    0.0000 O   0  0  0  0  0  0  0  0  0  0  0  0
   16.2525   -1.4154    0.0000 N   0  0  0  0  0  0  0  0  0  0  0  0
   14.8471   -0.8911    0.0000 C   0  0  0  0  0  0  0  0  0  0  0  0
   14.5748   -2.3662    0.0000 C   0  0  0  0  0  0  0  0  0  0  0  0
   13.1612   -2.8679    0.0000 C   0  0  0  0  0  0  0  0  0  0  0  0
   12.8889   -4.3430    0.0000 N   0  0  0  0  0  0  0  0  0  0  0  0
   12.0199   -1.8945    0.0000 O   0  0  0  0  0  0  0  0  0  0  0  0
   13.7059    0.0823    0.0000 C   0  0  0  0  0  0  0  0  0  0  0  0
   12.2922   -0.4194    0.0000 O   0  0  0  0  0  0  0  0  0  0  0  0
   13.9782    1.5573    0.0000 N   0  0  0  0  0  0  0  0  0  0  0  0
   12.8369    2.5307    0.0000 C   0  0  0  0  0  0  0  0  0  0  0  0
   13.9937    3.4856    0.0000 C   0  0  0  0  0  0  0  0  0  0  0  0
   15.3246    2.7939    0.0000 C   0  0  0  0  0  0  0  0  0  0  0  0
   14.7541    4.7786    0.0000 C   0  0  0  0  0  0  0  0  0  0  0  0
   16.2540    4.7666    0.0000 C   0  0  0  0  0  0  0  0  0  0  0  0
   11.4315    3.0550    0.0000 C   0  0  0  0  0  0  0  0  0  0  0  0
   11.3651    4.5536    0.0000 O   0  0  0  0  0  0  0  0  0  0  0  0
   10.2747    2.1001    0.0000 N   0  0  0  0  0  0  0  0  0  0  0  0
    8.8694    2.6244    0.0000 C   0  0  0  0  0  0  0  0  0  0  0  0
    8.9695    1.1278    0.0000 C   0  0  0  0  0  0  0  0  0  0  0  0
    8.6239   -0.3319    0.0000 C   0  0  0  0  0  0  0  0  0  0  0  0
    7.8635   -1.6249    0.0000 C   0  0  0  0  0  0  0  0  0  0  0  0
    6.7558   -2.6363    0.0000 C   0  0  0  0  0  0  0  0  0  0  0  0
    9.9253    3.6898    0.0000 C   0  0  0  0  0  0  0  0  0  0  0  0
    8.3326    4.0251    0.0000 C   0  0  0  0  0  0  0  0  0  0  0  0
    9.6376    4.7647    0.0000 O   0  0  0  0  0  0  0  0  0  0  0  0
    7.4068    5.2053    0.0000 N   0  0  0  0  0  0  0  0  0  0  0  0
    6.1743    6.0602    0.0000 C   0  0  0  0  0  0  0  0  0  0  0  0
    5.9997    7.5500    0.0000 C   0  0  0  0  0  0  0  0  0  0  0  0
    7.2026    8.4461    0.0000 C   0  0  0  0  0  0  0  0  0  0  0  0
    7.0281    9.9359    0.0000 O   0  0  0  0  0  0  0  0  0  0  0  0
    8.5801    7.8524    0.0000 O   0  0  0  0  0  0  0  0  0  0  0  0
    4.7445    6.5139    0.0000 C   0  0  0  0  0  0  0  0  0  0  0  0
    4.9800    7.9953    0.0000 O   0  0  0  0  0  0  0  0  0  0  0  0
    3.2445    6.5259    0.0000 N   0  0  0  0  0  0  0  0  0  0  0  0
    1.8077    6.0953    0.0000 C   0  0  0  0  0  0  0  0  0  0  0  0
    0.5341    6.8877    0.0000 C   0  0  0  0  0  0  0  0  0  0  0  0
    0.5835    8.3869    0.0000 C   0  0  0  0  0  0  0  0  0  0  0  0
   -0.6901    9.1793    0.0000 C   0  0  0  0  0  0  0  0  0  0  0  0
   -0.6407   10.6785    0.0000 N   0  0  0  0  0  0  0  0  0  0  0  0
   -1.9143   11.4709    0.0000 C   0  0  0  0  0  0  0  0  0  0  0  0
   -1.8649   12.9701    0.0000 N   0  0  0  0  0  0  0  0  0  0  0  0
   -3.2373   10.7641    0.0000 N   0  0  0  0  0  0  0  0  0  0  0  0
    0.5616    5.2603    0.0000 C   0  0  0  0  0  0  0  0  0  0  0  0
   -0.4498    6.3680    0.0000 O   0  0  0  0  0  0  0  0  0  0  0  0
   -0.3830    4.0951    0.0000 N   0  0  0  0  0  0  0  0  0  0  0  0
   -0.9422    2.7032    0.0000 C   0  0  0  0  0  0  0  0  0  0  0  0
   -2.3559    2.2015    0.0000 C   0  0  0  0  0  0  0  0  0  0  0  0
   -3.3700    3.3068    0.0000 C   0  0  0  0  0  0  0  0  0  0  0  0
   -3.5126    1.2466    0.0000 C   0  0  0  0  0  0  0  0  0  0  0  0
   -4.9180    1.7709    0.0000 C   0  0  0  0  0  0  0  0  0  0  0  0
   -1.0663    1.2084    0.0000 C   0  0  0  0  0  0  0  0  0  0  0  0
   -2.5396    0.9266    0.0000 O   0  0  0  0  0  0  0  0  0  0  0  0
   -0.7443   -0.2567    0.0000 N   0  0  0  0  0  0  0  0  0  0  0  0
   -0.0048   -1.5617    0.0000 C   0  0  0  0  0  0  0  0  0  0  0  0
    1.0866   -2.5907    0.0000 C   0  0  0  0  0  0  0  0  0  0  0  0
    2.4328   -3.2524    0.0000 C   0  0  0  0  0  0  0  0  0  0  0  0
    3.9142   -3.4879    0.0000 C   0  0  0  0  0  0  0  0  0  0  0  0
    5.3992   -3.2762    0.0000 C   0  0  0  0  0  0  0  0  0  0  0  0
   -1.4985   -1.6990    0.0000 C   0  0  0  0  0  0  0  0  0  0  0  0
   -0.4939   -2.9797    0.0000 C   0  0  0  0  0  0  0  0  0  0  0  0
    0.1863   -4.3166    0.0000 O   0  0  0  0  0  0  0  0  0  0  0  0
   -1.9665   -3.2651    0.0000 N   0  0  0  0  0  0  0  0  0  0  0  0
   -2.4556   -4.6831    0.0000 C   0  0  0  0  0  0  0  0  0  0  0  0
   -2.4303   -6.1829    0.0000 C   0  0  0  0  0  0  0  0  0  0  0  0
   -3.7164   -6.9547    0.0000 C   0  0  0  0  0  0  0  0  0  0  0  0
   -3.6911   -8.4545    0.0000 C   0  0  0  0  0  0  0  0  0  0  0  0
   -4.9773   -9.2264    0.0000 O   0  0  0  0  0  0  0  0  0  0  0  0
   -2.3796   -9.1825    0.0000 O   0  0  0  0  0  0  0  0  0  0  0  0
   -3.9282   -4.9685    0.0000 C   0  0  0  0  0  0  0  0  0  0  0  0
   -4.5866   -6.3163    0.0000 O   0  0  0  0  0  0  0  0  0  0  0  0
   -4.9117   -3.8359    0.0000 N   0  0  0  0  0  0  0  0  0  0  0  0
   -6.3843   -4.1213    0.0000 C   0  0  0  0  0  0  0  0  0  0  0  0
   -7.6705   -4.8932    0.0000 C   0  0  0  0  0  0  0  0  0  0  0  0
   -7.6451   -6.3930    0.0000 C   0  0  0  0  0  0  0  0  0  0  0  0
   -8.9313   -7.1648    0.0000 C   0  0  0  0  0  0  0  0  0  0  0  0
   -7.1083   -7.7936    0.0000 C   0  0  0  0  0  0  0  0  0  0  0  0
   -7.3678   -2.9887    0.0000 C   0  0  0  0  0  0  0  0  0  0  0  0
   -6.8786   -1.5707    0.0000 O   0  0  0  0  0  0  0  0  0  0  0  0
   -8.8403   -3.2741    0.0000 N   0  0  0  0  0  0  0  0  0  0  0  0
   -9.8238   -2.1415    0.0000 C   0  0  0  0  0  0  0  0  0  0  0  0
  -11.2964   -2.4269    0.0000 C   0  0  0  0  0  0  0  0  0  0  0  0
  -11.7855   -3.8449    0.0000 O   0  0  0  0  0  0  0  0  0  0  0  0
  -12.2799   -1.2943    0.0000 N   0  0  0  0  0  0  0  0  0  0  0  0
  -13.7525   -1.5797    0.0000 C   0  0  0  0  0  0  0  0  0  0  0  0
  -15.0387   -2.3516    0.0000 C   0  0  0  0  0  0  0  0  0  0  0  0
  -16.4655   -2.8144    0.0000 O   0  0  0  0  0  0  0  0  0  0  0  0
  -15.0133   -3.8514    0.0000 C   0  0  0  0  0  0  0  0  0  0  0  0
  -14.7359   -0.4471    0.0000 C   0  0  0  0  0  0  0  0  0  0  0  0
  -14.2468    0.9709    0.0000 O   0  0  0  0  0  0  0  0  0  0  0  0
  -16.2085   -0.7325    0.0000 N   0  0  0  0  0  0  0  0  0  0  0  0
  -17.1920    0.4001    0.0000 C   0  0  0  0  0  0  0  0  0  0  0  0
  -17.7288    1.8007    0.0000 C   0  0  0  0  0  0  0  0  0  0  0  0
  -19.2102    2.0362    0.0000 C   0  0  0  0  0  0  0  0  0  0  0  0
  -19.7470    3.4369    0.0000 C   0  0  0  0  0  0  0  0  0  0  0  0
  -20.6828    1.7508    0.0000 C   0  0  0  0  0  0  0  0  0  0  0  0
  -18.6646    0.1147    0.0000 C   0  0  0  0  0  0  0  0  0  0  0  0
  -19.1537   -1.3033    0.0000 O   0  0  0  0  0  0  0  0  0  0  0  0
  -19.6481    1.2473    0.0000 N   0  0  0  0  0  0  0  0  0  0  0  0
  -21.1207    0.9619    0.0000 C   0  0  0  0  0  0  0  0  0  0  0  0
  -22.4068    0.1900    0.0000 C   0  0  0  0  0  0  0  0  0  0  0  0
  -22.1989   -1.2955    0.0000 C   0  0  0  0  0  0  0  0  0  0  0  0
  -23.8794   -0.0954    0.0000 C   0  0  0  0  0  0  0  0  0  0  0  0
  -24.3686   -1.5134    0.0000 C   0  0  0  0  0  0  0  0  0  0  0  0
  -22.1041    2.0945    0.0000 C   0  0  0  0  0  0  0  0  0  0  0  0
  -23.6020    2.1739    0.0000 O   0  0  0  0  0  0  0  0  0  0  0  0
  -21.7915    3.5615    0.0000 O   0  0  0  0  0  0  0  0  0  0  0  0
   24.6876    0.4238    0.0000 H   0  0  0  0  0  0  0  0  0  0  0  0
   24.6667   -2.1742    0.0000 H   0  0  0  0  0  0  0  0  0  0  0  0
   22.6995    0.6179    0.0000 H   0  0  0  0  0  0  0  0  0  0  0  0
   21.0218   -0.3328    0.0000 H   0  0  0  0  0  0  0  0  0  0  0  0
   23.0722   -2.6745    0.0000 H   0  0  0  0  0  0  0  0  0  0  0  0
   21.3945   -3.6252    0.0000 H   0  0  0  0  0  0  0  0  0  0  0  0
   19.9924   -4.2218    0.0000 H   0  0  0  0  0  0  0  0  0  0  0  0
   18.1788   -1.9440    0.0000 H   0  0  0  0  0  0  0  0  0  0  0  0
   18.8946   -6.2033    0.0000 H   0  0  0  0  0  0  0  0  0  0  0  0
   19.1158   -4.6846    0.0000 H   0  0  0  0  0  0  0  0  0  0  0  0
   18.6523   -7.8568    0.0000 H   0  0  0  0  0  0  0  0  0  0  0  0
   16.3388   -9.7666    0.0000 H   0  0  0  0  0  0  0  0  0  0  0  0
   13.5280   -8.7180    0.0000 H   0  0  0  0  0  0  0  0  0  0  0  0
   13.0308   -5.7595    0.0000 H   0  0  0  0  0  0  0  0  0  0  0  0
   15.1998   -4.4267    0.0000 H   0  0  0  0  0  0  0  0  0  0  0  0
   17.4093   -0.4605    0.0000 H   0  0  0  0  0  0  0  0  0  0  0  0
   15.6075    0.4019    0.0000 H   0  0  0  0  0  0  0  0  0  0  0  0
   14.4581   -3.8616    0.0000 H   0  0  0  0  0  0  0  0  0  0  0  0
   15.4325   -2.5874    0.0000 H   0  0  0  0  0  0  0  0  0  0  0  0
   11.4753   -4.8447    0.0000 H   0  0  0  0  0  0  0  0  0  0  0  0
   14.0302   -5.3163    0.0000 H   0  0  0  0  0  0  0  0  0  0  0  0
   15.4424    1.8830    0.0000 H   0  0  0  0  0  0  0  0  0  0  0  0
   12.0765    1.2377    0.0000 H   0  0  0  0  0  0  0  0  0  0  0  0
   12.8524    4.4590    0.0000 H   0  0  0  0  0  0  0  0  0  0  0  0
   16.6834    3.7578    0.0000 H   0  0  0  0  0  0  0  0  0  0  0  0
   16.5403    1.9879    0.0000 H   0  0  0  0  0  0  0  0  0  0  0  0
   15.1526    1.4817    0.0000 H   0  0  0  0  0  0  0  0  0  0  0  0
   15.0264    6.2537    0.0000 H   0  0  0  0  0  0  0  0  0  0  0  0
   13.3487    5.3029    0.0000 H   0  0  0  0  0  0  0  0  0  0  0  0
   17.0144    6.0595    0.0000 H   0  0  0  0  0  0  0  0  0  0  0  0
   17.6594    4.2422    0.0000 H   0  0  0  0  0  0  0  0  0  0  0  0
   16.3467    3.2694    0.0000 H   0  0  0  0  0  0  0  0  0  0  0  0
   10.8739    0.7250    0.0000 H   0  0  0  0  0  0  0  0  0  0  0  0
   10.4242    1.4934    0.0000 H   0  0  0  0  0  0  0  0  0  0  0  0
   10.1578    0.2125    0.0000 H   0  0  0  0  0  0  0  0  0  0  0  0
   10.1218   -0.4113    0.0000 H   0  0  0  0  0  0  0  0  0  0  0  0
    9.6326   -1.4421    0.0000 H   0  0  0  0  0  0  0  0  0  0  0  0
    9.3240   -1.9668    0.0000 H   0  0  0  0  0  0  0  0  0  0  0  0
    8.3298   -3.0505    0.0000 H   0  0  0  0  0  0  0  0  0  0  0  0
    7.5908   -3.8824    0.0000 H   0  0  0  0  0  0  0  0  0  0  0  0
   11.4252    3.6704    0.0000 H   0  0  0  0  0  0  0  0  0  0  0  0
   10.3825    5.1184    0.0000 H   0  0  0  0  0  0  0  0  0  0  0  0
    8.9363    4.8175    0.0000 H   0  0  0  0  0  0  0  0  0  0  0  0
    8.4359    6.2967    0.0000 H   0  0  0  0  0  0  0  0  0  0  0  0
    7.4604    6.8321    0.0000 H   0  0  0  0  0  0  0  0  0  0  0  0
    5.3261    8.8903    0.0000 H   0  0  0  0  0  0  0  0  0  0  0  0
    4.5013    7.4799    0.0000 H   0  0  0  0  0  0  0  0  0  0  0  0
    3.0329    8.0109    0.0000 H   0  0  0  0  0  0  0  0  0  0  0  0
    2.1859    7.5468    0.0000 H   0  0  0  0  0  0  0  0  0  0  0  0
   -0.9605    7.0155    0.0000 H   0  0  0  0  0  0  0  0  0  0  0  0
   -0.3453    5.6725    0.0000 H   0  0  0  0  0  0  0  0  0  0  0  0
    1.1427    9.7787    0.0000 H   0  0  0  0  0  0  0  0  0  0  0  0
    2.0781    8.2591    0.0000 H   0  0  0  0  0  0  0  0  0  0  0  0
   -2.1579    9.4883    0.0000 H   0  0  0  0  0  0  0  0  0  0  0  0
   -1.4148    7.8660    0.0000 H   0  0  0  0  0  0  0  0  0  0  0  0
    0.6824   11.3852    0.0000 H   0  0  0  0  0  0  0  0  0  0  0  0
   -3.1385   13.7625    0.0000 H   0  0  0  0  0  0  0  0  0  0  0  0
   -0.5418   13.6768    0.0000 H   0  0  0  0  0  0  0  0  0  0  0  0
   -4.5110   11.5565    0.0000 H   0  0  0  0  0  0  0  0  0  0  0  0
   -3.2868    9.2649    0.0000 H   0  0  0  0  0  0  0  0  0  0  0  0
   -1.6760    4.8555    0.0000 H   0  0  0  0  0  0  0  0  0  0  0  0
   -1.8413    3.9039    0.0000 H   0  0  0  0  0  0  0  0  0  0  0  0
   -1.9541    0.7563    0.0000 H   0  0  0  0  0  0  0  0  0  0  0  0
   -4.9765    2.8657    0.0000 H   0  0  0  0  0  0  0  0  0  0  0  0
   -4.2367    4.4799    0.0000 H   0  0  0  0  0  0  0  0  0  0  0  0
   -2.4654    4.2637    0.0000 H   0  0  0  0  0  0  0  0  0  0  0  0
   -4.2730   -0.0464    0.0000 H   0  0  0  0  0  0  0  0  0  0  0  0
   -2.4985    0.1414    0.0000 H   0  0  0  0  0  0  0  0  0  0  0  0
   -6.0748    0.8160    0.0000 H   0  0  0  0  0  0  0  0  0  0  0  0
   -6.0593    2.7443    0.0000 H   0  0  0  0  0  0  0  0  0  0  0  0
   -4.4931    3.2095    0.0000 H   0  0  0  0  0  0  0  0  0  0  0  0
   -2.1450   -0.7934    0.0000 H   0  0  0  0  0  0  0  0  0  0  0  0
    1.0372   -4.0899    0.0000 H   0  0  0  0  0  0  0  0  0  0  0  0
   -0.1208   -3.4809    0.0000 H   0  0  0  0  0  0  0  0  0  0  0  0
    2.6481   -4.7369    0.0000 H   0  0  0  0  0  0  0  0  0  0  0  0
    1.5414   -4.4588    0.0000 H   0  0  0  0  0  0  0  0  0  0  0  0
    4.7179   -4.7544    0.0000 H   0  0  0  0  0  0  0  0  0  0  0  0
    3.2492   -4.8324    0.0000 H   0  0  0  0  0  0  0  0  0  0  0  0
    5.8298   -4.7131    0.0000 H   0  0  0  0  0  0  0  0  0  0  0  0
   -2.4373   -2.8689    0.0000 H   0  0  0  0  0  0  0  0  0  0  0  0
   -2.8917   -1.1433    0.0000 H   0  0  0  0  0  0  0  0  0  0  0  0
   -1.7398   -0.2186    0.0000 H   0  0  0  0  0  0  0  0  0  0  0  0
   -3.0807   -2.2608    0.0000 H   0  0  0  0  0  0  0  0  0  0  0  0
   -0.9742   -4.9186    0.0000 H   0  0  0  0  0  0  0  0  0  0  0  0
   -1.8935   -7.5836    0.0000 H   0  0  0  0  0  0  0  0  0  0  0  0
   -0.9577   -5.8975    0.0000 H   0  0  0  0  0  0  0  0  0  0  0  0
   -5.2128   -7.0585    0.0000 H   0  0  0  0  0  0  0  0  0  0  0  0
   -4.7196   -5.8396    0.0000 H   0  0  0  0  0  0  0  0  0  0  0  0
   -4.4226   -2.4179    0.0000 H   0  0  0  0  0  0  0  0  0  0  0  0
   -5.6808   -5.4461    0.0000 H   0  0  0  0  0  0  0  0  0  0  0  0
   -9.1431   -5.1786    0.0000 H   0  0  0  0  0  0  0  0  0  0  0  0
   -8.5302   -3.6640    0.0000 H   0  0  0  0  0  0  0  0  0  0  0  0
   -6.1487   -6.2892    0.0000 H   0  0  0  0  0  0  0  0  0  0  0  0
   -9.0889   -8.6565    0.0000 H   0  0  0  0  0  0  0  0  0  0  0  0
  -10.4039   -7.4502    0.0000 H   0  0  0  0  0  0  0  0  0  0  0  0
   -9.6348   -5.8400    0.0000 H   0  0  0  0  0  0  0  0  0  0  0  0
   -7.9039   -9.0653    0.0000 H   0  0  0  0  0  0  0  0  0  0  0  0
   -6.1249   -8.9262    0.0000 H   0  0  0  0  0  0  0  0  0  0  0  0
   -5.9258   -6.8707    0.0000 H   0  0  0  0  0  0  0  0  0  0  0  0
   -9.4987   -4.6219    0.0000 H   0  0  0  0  0  0  0  0  0  0  0  0
  -10.3606   -0.7408    0.0000 H   0  0  0  0  0  0  0  0  0  0  0  0
   -8.5376   -1.3697    0.0000 H   0  0  0  0  0  0  0  0  0  0  0  0
  -11.7908    0.1237    0.0000 H   0  0  0  0  0  0  0  0  0  0  0  0
  -13.0490   -2.9045    0.0000 H   0  0  0  0  0  0  0  0  0  0  0  0
  -15.8984   -1.1224    0.0000 H   0  0  0  0  0  0  0  0  0  0  0  0
  -17.1696   -3.9848    0.0000 H   0  0  0  0  0  0  0  0  0  0  0  0
  -16.1958   -4.7742    0.0000 H   0  0  0  0  0  0  0  0  0  0  0  0
  -14.4765   -5.2520    0.0000 H   0  0  0  0  0  0  0  0  0  0  0  0
  -13.5169   -3.7476    0.0000 H   0  0  0  0  0  0  0  0  0  0  0  0
  -16.8669   -2.0803    0.0000 H   0  0  0  0  0  0  0  0  0  0  0  0
  -15.9058    1.1719    0.0000 H   0  0  0  0  0  0  0  0  0  0  0  0
  -17.5711    3.2924    0.0000 H   0  0  0  0  0  0  0  0  0  0  0  0
  -16.2562    2.0862    0.0000 H   0  0  0  0  0  0  0  0  0  0  0  0
  -19.8921    0.7001    0.0000 H   0  0  0  0  0  0  0  0  0  0  0  0
  -21.1274    4.0238    0.0000 H   0  0  0  0  0  0  0  0  0  0  0  0
  -19.7723    4.9367    0.0000 H   0  0  0  0  0  0  0  0  0  0  0  0
  -18.3202    3.8997    0.0000 H   0  0  0  0  0  0  0  0  0  0  0  0
  -21.5005    0.4933    0.0000 H   0  0  0  0  0  0  0  0  0  0  0  0
  -21.9814    2.5016    0.0000 H   0  0  0  0  0  0  0  0  0  0  0  0
  -20.8908    3.2363    0.0000 H   0  0  0  0  0  0  0  0  0  0  0  0
  -19.5166    2.7415    0.0000 H   0  0  0  0  0  0  0  0  0  0  0  0
  -20.4172   -0.3629    0.0000 H   0  0  0  0  0  0  0  0  0  0  0  0
  -23.2666    1.4192    0.0000 H   0  0  0  0  0  0  0  0  0  0  0  0
  -23.5609   -2.2548    0.0000 H   0  0  0  0  0  0  0  0  0  0  0  0
  -21.8447   -2.7104    0.0000 H   0  0  0  0  0  0  0  0  0  0  0  0
  -20.8851   -1.2060    0.0000 H   0  0  0  0  0  0  0  0  0  0  0  0
  -25.3609    0.1401    0.0000 H   0  0  0  0  0  0  0  0  0  0  0  0
  -24.0874    1.3901    0.0000 H   0  0  0  0  0  0  0  0  0  0  0  0
  -25.8412   -1.7988    0.0000 H   0  0  0  0  0  0  0  0  0  0  0  0
  -24.3432   -3.0132    0.0000 H   0  0  0  0  0  0  0  0  0  0  0  0
  -22.9882   -2.1003    0.0000 H   0  0  0  0  0  0  0  0  0  0  0  0
  1  2  1  0
  2  3  1  0
  3  4  1  0
  4  5  2  0
  4  6  1  0
  6  7  1  0
  7  8  1  0
  8  9  1  0
  9 10  2  0
 10 11  1  0
 11 12  2  0
 12 13  1  0
 13 14  2  0
  7 15  1  0
 15 16  2  0
 15 17  1  0
 17 18  1  0
 18 19  1  0
 19 20  1  0
 20 21  1  0
 20 22  2  0
 18 23  1  0
 23 24  2  0
 23 25  1  0
 25 26  1  0
 26 27  1  0
 27 28  1  0
 27 29  1  0
 29 30  1  0
 26 31  1  0
 31 32  2  0
 31 33  1  0
 34 33  1  1
 34 35  1  0
 35 36  1  0
 36 37  1  0
 37 38  1  0
 34 39  1  0
 34 40  1  0
 40 41  2  0
 40 42  1  0
 42 43  1  0
 43 44  1  0
 44 45  1  0
 45 46  2  0
 45 47  1  0
 43 48  1  0
 48 49  2  0
 48 50  1  0
 50 51  1  0
 51 52  1  0
 52 53  1  0
 53 54  1  0
 54 55  1  0
 55 56  1  0
 56 57  2  3
 56 58  1  0
 51 59  1  0
 59 60  2  0
 59 61  1  0
 61 62  1  0
 62 63  1  0
 63 64  1  0
 63 65  1  0
 65 66  1  0
 62 67  1  0
 67 68  2  0
 67 69  1  0
 69 70  1  0
 70 71  1  0
 71 72  1  0
 72 73  1  0
 73 74  1  0
 70 75  1  0
 70 76  1  1
 76 77  2  0
 76 78  1  0
 78 79  1  0
 79 80  1  0
 80 81  1  0
 81 82  1  0
 82 83  2  0
 82 84  1  0
 79 85  1  0
 85 86  2  0
 85 87  1  0
 87 88  1  0
 88 89  1  0
 89 90  1  0
 90 91  1  0
 90 92  1  0
 88 93  1  0
 93 94  2  0
 93 95  1  0
 95 96  1  0
 96 97  1  0
 97 98  2  0
 97 99  1  0
 99100  1  0
100101  1  0
101102  1  0
101103  1  0
100104  1  0
104105  2  0
104106  1  0
106107  1  0
107108  1  0
108109  1  0
109110  1  0
109111  1  0
107112  1  0
112113  2  0
112114  1  0
114115  1  0
115116  1  0
116117  1  0
116118  1  0
118119  1  0
115120  1  0
120121  2  0
120122  1  0
 14  9  1  0
 38 74  2  0
  1123  1  0
  1124  1  0
  2125  1  0
  2126  1  0
  3127  1  0
  3128  1  0
  6129  1  0
  7130  1  1
  8131  1  0
  8132  1  0
 10133  1  0
 11134  1  0
 12135  1  0
 13136  1  0
 14137  1  0
 17138  1  0
 18139  1  1
 19140  1  0
 19141  1  0
 21142  1  0
 21143  1  0
 25144  1  0
 26145  1  6
 27146  1  1
 28147  1  0
 28148  1  0
 28149  1  0
 29150  1  0
 29151  1  0
 30152  1  0
 30153  1  0
 30154  1  0
 33155  1  0
 35156  1  0
 35157  1  0
 36158  1  0
 36159  1  0
 37160  1  0
 37161  1  0
 38162  1  0
 39163  1  0
 39164  1  0
 39165  1  0
 42166  1  0
 43167  1  6
 44168  1  0
 44169  1  0
 50170  1  0
 51171  1  6
 52172  1  0
 52173  1  0
 53174  1  0
 53175  1  0
 54176  1  0
 54177  1  0
 55178  1  0
 57179  1  0
 57180  1  0
 58181  1  0
 58182  1  0
 61183  1  0
 62184  1  6
 63185  1  1
 64186  1  0
 64187  1  0
 64188  1  0
 65189  1  0
 65190  1  0
 66191  1  0
 66192  1  0
 66193  1  0
 69194  1  0
 71195  1  0
 71196  1  0
 72197  1  0
 72198  1  0
 73199  1  0
 73200  1  0
 74201  1  0
 75202  1  0
 75203  1  0
 75204  1  0
 78205  1  0
 79206  1  1
 80207  1  0
 80208  1  0
 81209  1  0
 81210  1  0
 87211  1  0
 88212  1  1
 89213  1  0
 89214  1  0
 90215  1  0
 91216  1  0
 91217  1  0
 91218  1  0
 92219  1  0
 92220  1  0
 92221  1  0
 95222  1  0
 96223  1  0
 96224  1  0
 99225  1  0
100226  1  1
101227  1  6
102228  1  0
103229  1  0
103230  1  0
103231  1  0
106232  1  0
107233  1  6
108234  1  0
108235  1  0
109236  1  0
110237  1  0
110238  1  0
110239  1  0
111240  1  0
111241  1  0
111242  1  0
114243  1  0
115244  1  1
116245  1  6
117246  1  0
117247  1  0
117248  1  0
118249  1  0
118250  1  0
119251  1  0
119252  1  0
119253  1  0
M  CHG  4  47  -1  57   1  84  -1 122  -1
M  END
