
     RDKit          2D

458464  0  0  0  0  0  0  0  0999 V2000
  -46.5351   -4.8960    0.0000 C   0  0  0  0  0  0  0  0  0  0  0  0
  -47.5286   -6.0198    0.0000 N   0  0  0  0  0  0  0  0  0  0  0  0
  -48.9986   -5.7214    0.0000 C   0  0  0  0  0  0  0  0  0  0  0  0
  -49.4751   -4.2991    0.0000 C   0  0  0  0  0  0  0  0  0  0  0  0
  -50.9452   -4.0006    0.0000 C   0  0  0  0  0  0  0  0  0  0  0  0
  -51.9386   -5.1244    0.0000 C   0  0  0  0  0  0  0  0  0  0  0  0
  -51.4621   -6.5467    0.0000 C   0  0  0  0  0  0  0  0  0  0  0  0
  -49.9921   -6.8452    0.0000 C   0  0  0  0  0  0  0  0  0  0  0  0
  -52.6676   -7.4394    0.0000 C   0  0  0  0  0  0  0  0  0  0  0  0
  -53.8891   -6.5688    0.0000 O   0  0  0  0  0  0  0  0  0  0  0  0
  -53.4386   -5.1381    0.0000 C   0  0  0  0  0  0  0  0  0  0  0  0
  -54.3313   -3.9326    0.0000 O   0  0  0  0  0  0  0  0  0  0  0  0
  -53.9597   -8.2012    0.0000 C   0  0  0  0  0  0  0  0  0  0  0  0
  -53.9460   -9.7011    0.0000 C   0  0  0  0  0  0  0  0  0  0  0  0
  -55.2382  -10.4630    0.0000 C   0  0  0  0  0  0  0  0  0  0  0  0
  -56.5440   -9.7248    0.0000 C   0  0  0  0  0  0  0  0  0  0  0  0
  -56.5577   -8.2249    0.0000 C   0  0  0  0  0  0  0  0  0  0  0  0
  -55.2655   -7.4631    0.0000 C   0  0  0  0  0  0  0  0  0  0  0  0
  -57.8362  -10.4866    0.0000 O   0  0  0  0  0  0  0  0  0  0  0  0
  -52.6402  -10.4393    0.0000 O   0  0  0  0  0  0  0  0  0  0  0  0
  -51.3481   -9.6775    0.0000 C   0  0  0  0  0  0  0  0  0  0  0  0
  -51.3617   -8.1775    0.0000 C   0  0  0  0  0  0  0  0  0  0  0  0
  -50.0632   -8.1157    0.0000 C   0  0  0  0  0  0  0  0  0  0  0  0
  -49.3668   -8.5094    0.0000 C   0  0  0  0  0  0  0  0  0  0  0  0
  -49.3595   -9.3093    0.0000 C   0  0  0  0  0  0  0  0  0  0  0  0
  -50.0486   -9.7156    0.0000 C   0  0  0  0  0  0  0  0  0  0  0  0
  -47.4443  -10.3919    0.0000 O   0  0  0  0  0  0  0  0  0  0  0  0
  -47.0117   -3.4737    0.0000 S   0  0  0  0  0  0  0  0  0  0  0  0
  -45.0651   -5.1945    0.0000 N   0  0  0  0  0  0  0  0  0  0  0  0
  -44.0716   -4.0707    0.0000 C   0  0  0  0  0  0  0  0  0  0  0  0
  -42.6016   -4.3691    0.0000 C   0  0  0  0  0  0  0  0  0  0  0  0
  -41.6081   -3.2453    0.0000 C   0  0  0  0  0  0  0  0  0  0  0  0
  -42.0847   -1.8230    0.0000 O   0  0  0  0  0  0  0  0  0  0  0  0
  -40.1381   -3.5438    0.0000 N   0  0  0  0  0  0  0  0  0  0  0  0
  -39.1447   -2.4200    0.0000 C   0  0  0  0  0  0  0  0  0  0  0  0
  -38.5954   -1.0241    0.0000 C   0  0  0  0  0  0  0  0  0  0  0  0
  -37.2903   -0.2849    0.0000 O   0  0  0  0  0  0  0  0  0  0  0  0
  -37.6747   -2.7185    0.0000 C   0  0  0  0  0  0  0  0  0  0  0  0
  -37.1981   -4.1408    0.0000 O   0  0  0  0  0  0  0  0  0  0  0  0
  -36.6812   -1.5946    0.0000 N   0  0  0  0  0  0  0  0  0  0  0  0
  -35.2112   -1.8931    0.0000 C   0  0  0  0  0  0  0  0  0  0  0  0
  -33.9319   -2.6764    0.0000 C   0  0  0  0  0  0  0  0  0  0  0  0
  -33.9706   -4.1759    0.0000 C   0  0  0  0  0  0  0  0  0  0  0  0
  -32.6913   -4.9591    0.0000 C   0  0  0  0  0  0  0  0  0  0  0  0
  -32.7300   -6.4586    0.0000 O   0  0  0  0  0  0  0  0  0  0  0  0
  -31.3734   -4.2429    0.0000 O   0  0  0  0  0  0  0  0  0  0  0  0
  -34.2177   -0.7693    0.0000 C   0  0  0  0  0  0  0  0  0  0  0  0
  -34.6942    0.6530    0.0000 O   0  0  0  0  0  0  0  0  0  0  0  0
  -32.7477   -1.0678    0.0000 N   0  0  0  0  0  0  0  0  0  0  0  0
  -31.7542    0.0560    0.0000 C   0  0  0  0  0  0  0  0  0  0  0  0
  -31.2050    1.4519    0.0000 C   0  0  0  0  0  0  0  0  0  0  0  0
  -29.7215    1.6742    0.0000 C   0  0  0  0  0  0  0  0  0  0  0  0
  -29.1723    3.0700    0.0000 C   0  0  0  0  0  0  0  0  0  0  0  0
  -28.0016    3.3952    0.0000 O   0  0  0  0  0  0  0  0  0  0  0  0
  -30.1065    4.2436    0.0000 O   0  0  0  0  0  0  0  0  0  0  0  0
  -30.2842   -0.2424    0.0000 C   0  0  0  0  0  0  0  0  0  0  0  0
  -29.8077   -1.6647    0.0000 O   0  0  0  0  0  0  0  0  0  0  0  0
  -29.2907    0.8814    0.0000 N   0  0  0  0  0  0  0  0  0  0  0  0
  -27.8207    0.5829    0.0000 C   0  0  0  0  0  0  0  0  0  0  0  0
  -26.5414   -0.2003    0.0000 C   0  0  0  0  0  0  0  0  0  0  0  0
  -26.5801   -1.6998    0.0000 C   0  0  0  0  0  0  0  0  0  0  0  0
  -25.3008   -2.4831    0.0000 C   0  0  0  0  0  0  0  0  0  0  0  0
  -27.1293   -3.0957    0.0000 C   0  0  0  0  0  0  0  0  0  0  0  0
  -26.8272    1.7067    0.0000 C   0  0  0  0  0  0  0  0  0  0  0  0
  -27.0698    2.8972    0.0000 O   0  0  0  0  0  0  0  0  0  0  0  0
  -25.3572    1.4082    0.0000 N   0  0  0  0  0  0  0  0  0  0  0  0
  -24.3637    2.5321    0.0000 C   0  0  0  0  0  0  0  0  0  0  0  0
  -23.8145    3.9279    0.0000 C   0  0  0  0  0  0  0  0  0  0  0  0
  -22.4289    4.5025    0.0000 C   0  0  0  0  0  0  0  0  0  0  0  0
  -22.8937    2.2336    0.0000 C   0  0  0  0  0  0  0  0  0  0  0  0
  -22.5941    0.7638    0.0000 O   0  0  0  0  0  0  0  0  0  0  0  0
  -21.9002    3.3574    0.0000 N   0  0  0  0  0  0  0  0  0  0  0  0
  -20.4302    3.0589    0.0000 C   0  0  0  0  0  0  0  0  0  0  0  0
  -19.6813    1.7592    0.0000 C   0  0  0  0  0  0  0  0  0  0  0  0
  -18.5826    0.7380    0.0000 C   0  0  0  0  0  0  0  0  0  0  0  0
  -17.2317    0.0861    0.0000 C   0  0  0  0  0  0  0  0  0  0  0  0
  -15.7486   -0.1388    0.0000 C   0  0  0  0  0  0  0  0  0  0  0  0
  -21.4487    1.9577    0.0000 C   0  0  0  0  0  0  0  0  0  0  0  0
  -20.7627    4.5216    0.0000 C   0  0  0  0  0  0  0  0  0  0  0  0
  -21.6356    4.6719    0.0000 O   0  0  0  0  0  0  0  0  0  0  0  0
  -20.6493    6.0173    0.0000 N   0  0  0  0  0  0  0  0  0  0  0  0
  -20.1001    7.4132    0.0000 C   0  0  0  0  0  0  0  0  0  0  0  0
  -20.7833    8.7485    0.0000 C   0  0  0  0  0  0  0  0  0  0  0  0
  -22.2814    8.8246    0.0000 C   0  0  0  0  0  0  0  0  0  0  0  0
  -22.9645   10.1600    0.0000 C   0  0  0  0  0  0  0  0  0  0  0  0
  -24.4626   10.2360    0.0000 O   0  0  0  0  0  0  0  0  0  0  0  0
  -22.1496   11.4193    0.0000 O   0  0  0  0  0  0  0  0  0  0  0  0
  -19.1639    8.5851    0.0000 C   0  0  0  0  0  0  0  0  0  0  0  0
  -20.1832    9.6855    0.0000 O   0  0  0  0  0  0  0  0  0  0  0  0
  -17.9238    9.4290    0.0000 N   0  0  0  0  0  0  0  0  0  0  0  0
  -16.4901    9.8699    0.0000 C   0  0  0  0  0  0  0  0  0  0  0  0
  -15.8720   11.2366    0.0000 C   0  0  0  0  0  0  0  0  0  0  0  0
  -14.9901    9.8686    0.0000 C   0  0  0  0  0  0  0  0  0  0  0  0
  -14.7652   11.3517    0.0000 O   0  0  0  0  0  0  0  0  0  0  0  0
  -13.5571    9.4253    0.0000 N   0  0  0  0  0  0  0  0  0  0  0  0
  -12.3185    8.5792    0.0000 C   0  0  0  0  0  0  0  0  0  0  0  0
  -10.8645    8.9481    0.0000 C   0  0  0  0  0  0  0  0  0  0  0  0
  -10.4570   10.3917    0.0000 C   0  0  0  0  0  0  0  0  0  0  0  0
  -11.3854   11.5699    0.0000 C   0  0  0  0  0  0  0  0  0  0  0  0
  -10.5517   12.8169    0.0000 N   0  0  0  0  0  0  0  0  0  0  0  0
   -9.1082   12.4094    0.0000 C   0  0  0  0  0  0  0  0  0  0  0  0
   -9.0496   10.9106    0.0000 N   0  0  0  0  0  0  0  0  0  0  0  0
  -11.3842    7.4057    0.0000 C   0  0  0  0  0  0  0  0  0  0  0  0
  -10.0845    8.1546    0.0000 O   0  0  0  0  0  0  0  0  0  0  0  0
  -10.8374    6.0089    0.0000 N   0  0  0  0  0  0  0  0  0  0  0  0
  -10.7266    4.5130    0.0000 C   0  0  0  0  0  0  0  0  0  0  0  0
  -11.0616    3.0509    0.0000 C   0  0  0  0  0  0  0  0  0  0  0  0
  -11.8127    1.7525    0.0000 C   0  0  0  0  0  0  0  0  0  0  0  0
  -12.9132    0.7332    0.0000 C   0  0  0  0  0  0  0  0  0  0  0  0
  -14.2652    0.0835    0.0000 C   0  0  0  0  0  0  0  0  0  0  0  0
   -9.4086    5.2293    0.0000 C   0  0  0  0  0  0  0  0  0  0  0  0
   -9.5317    3.6063    0.0000 C   0  0  0  0  0  0  0  0  0  0  0  0
   -9.3538    2.1169    0.0000 O   0  0  0  0  0  0  0  0  0  0  0  0
   -8.1490    4.1877    0.0000 N   0  0  0  0  0  0  0  0  0  0  0  0
   -6.9540    3.2810    0.0000 C   0  0  0  0  0  0  0  0  0  0  0  0
   -6.1413    2.0203    0.0000 C   0  0  0  0  0  0  0  0  0  0  0  0
   -6.8268    0.6860    0.0000 C   0  0  0  0  0  0  0  0  0  0  0  0
   -6.0140   -0.5747    0.0000 C   0  0  0  0  0  0  0  0  0  0  0  0
   -7.9272   -0.3333    0.0000 C   0  0  0  0  0  0  0  0  0  0  0  0
   -5.5713    3.8625    0.0000 C   0  0  0  0  0  0  0  0  0  0  0  0
   -5.3835    5.3507    0.0000 O   0  0  0  0  0  0  0  0  0  0  0  0
   -4.3764    2.9557    0.0000 N   0  0  0  0  0  0  0  0  0  0  0  0
   -2.9937    3.5372    0.0000 C   0  0  0  0  0  0  0  0  0  0  0  0
   -1.8932    4.5565    0.0000 C   0  0  0  0  0  0  0  0  0  0  0  0
   -0.3966    4.6563    0.0000 S   0  0  0  0  0  0  0  0  0  0  0  0
   -1.7988    2.6305    0.0000 C   0  0  0  0  0  0  0  0  0  0  0  0
   -1.9866    1.1423    0.0000 O   0  0  0  0  0  0  0  0  0  0  0  0
   -0.4161    3.2119    0.0000 N   0  0  0  0  0  0  0  0  0  0  0  0
    0.7789    2.3052    0.0000 C   0  0  0  0  0  0  0  0  0  0  0  0
    1.5916    1.0445    0.0000 C   0  0  0  0  0  0  0  0  0  0  0  0
    2.6671   -0.0011    0.0000 O   0  0  0  0  0  0  0  0  0  0  0  0
    0.9061   -0.2897    0.0000 C   0  0  0  0  0  0  0  0  0  0  0  0
    2.1616    2.8867    0.0000 C   0  0  0  0  0  0  0  0  0  0  0  0
    2.3494    4.3749    0.0000 O   0  0  0  0  0  0  0  0  0  0  0  0
    3.3565    1.9800    0.0000 N   0  0  0  0  0  0  0  0  0  0  0  0
    4.7392    2.5614    0.0000 C   0  0  0  0  0  0  0  0  0  0  0  0
    5.8397    3.5807    0.0000 C   0  0  0  0  0  0  0  0  0  0  0  0
    7.2726    3.1374    0.0000 C   0  0  0  0  0  0  0  0  0  0  0  0
    8.3731    4.1567    0.0000 C   0  0  0  0  0  0  0  0  0  0  0  0
    8.4676    2.2306    0.0000 C   0  0  0  0  0  0  0  0  0  0  0  0
    5.9341    1.6547    0.0000 C   0  0  0  0  0  0  0  0  0  0  0  0
    5.7463    0.1665    0.0000 O   0  0  0  0  0  0  0  0  0  0  0  0
    7.3169    2.2362    0.0000 N   0  0  0  0  0  0  0  0  0  0  0  0
    8.5118    1.3294    0.0000 C   0  0  0  0  0  0  0  0  0  0  0  0
    9.3245    0.0687    0.0000 C   0  0  0  0  0  0  0  0  0  0  0  0
    8.6391   -1.2655    0.0000 C   0  0  0  0  0  0  0  0  0  0  0  0
    9.4518   -2.5263    0.0000 C   0  0  0  0  0  0  0  0  0  0  0  0
    7.5386   -2.2848    0.0000 C   0  0  0  0  0  0  0  0  0  0  0  0
    9.8945    1.9109    0.0000 C   0  0  0  0  0  0  0  0  0  0  0  0
   10.2623    3.3651    0.0000 O   0  0  0  0  0  0  0  0  0  0  0  0
   11.0894    1.0042    0.0000 N   0  0  0  0  0  0  0  0  0  0  0  0
   12.4721    1.5856    0.0000 C   0  0  0  0  0  0  0  0  0  0  0  0
   13.5726    2.6049    0.0000 C   0  0  0  0  0  0  0  0  0  0  0  0
   15.0056    2.1616    0.0000 C   0  0  0  0  0  0  0  0  0  0  0  0
   16.1060    3.1809    0.0000 C   0  0  0  0  0  0  0  0  0  0  0  0
   17.3018    2.9659    0.0000 O   0  0  0  0  0  0  0  0  0  0  0  0
   15.7735    4.6436    0.0000 O   0  0  0  0  0  0  0  0  0  0  0  0
   13.6670    0.6789    0.0000 C   0  0  0  0  0  0  0  0  0  0  0  0
   13.4793   -0.8093    0.0000 O   0  0  0  0  0  0  0  0  0  0  0  0
   15.0498    1.2604    0.0000 N   0  0  0  0  0  0  0  0  0  0  0  0
   16.2447    0.3536    0.0000 C   0  0  0  0  0  0  0  0  0  0  0  0
   17.0574   -0.9071    0.0000 C   0  0  0  0  0  0  0  0  0  0  0  0
   16.3720   -2.2413    0.0000 C   0  0  0  0  0  0  0  0  0  0  0  0
   17.1847   -3.5021    0.0000 N   0  0  0  0  0  0  0  0  0  0  0  0
   14.8738   -2.3148    0.0000 O   0  0  0  0  0  0  0  0  0  0  0  0
   17.6274    0.9351    0.0000 C   0  0  0  0  0  0  0  0  0  0  0  0
   17.9253    2.1130    0.0000 O   0  0  0  0  0  0  0  0  0  0  0  0
   18.8223    0.0284    0.0000 N   0  0  0  0  0  0  0  0  0  0  0  0
   20.2050    0.6098    0.0000 C   0  0  0  0  0  0  0  0  0  0  0  0
   21.3055    1.6292    0.0000 C   0  0  0  0  0  0  0  0  0  0  0  0
   21.4000   -0.2969    0.0000 C   0  0  0  0  0  0  0  0  0  0  0  0
   21.2122   -1.7851    0.0000 O   0  0  0  0  0  0  0  0  0  0  0  0
   22.7827    0.2846    0.0000 N   0  0  0  0  0  0  0  0  0  0  0  0
   23.9776   -0.6222    0.0000 C   0  0  0  0  0  0  0  0  0  0  0  0
   24.7903   -1.8829    0.0000 C   0  0  0  0  0  0  0  0  0  0  0  0
   23.9473   -3.1236    0.0000 C   0  0  0  0  0  0  0  0  0  0  0  0
   25.9852   -2.7896    0.0000 C   0  0  0  0  0  0  0  0  0  0  0  0
   25.7975   -4.2778    0.0000 C   0  0  0  0  0  0  0  0  0  0  0  0
   25.3603   -0.0407    0.0000 C   0  0  0  0  0  0  0  0  0  0  0  0
   25.5481    1.4475    0.0000 O   0  0  0  0  0  0  0  0  0  0  0  0
   26.5552   -0.9474    0.0000 N   0  0  0  0  0  0  0  0  0  0  0  0
   27.9379   -0.3660    0.0000 C   0  0  0  0  0  0  0  0  0  0  0  0
   29.0384    0.6534    0.0000 C   0  0  0  0  0  0  0  0  0  0  0  0
   30.4714    0.2100    0.0000 C   0  0  0  0  0  0  0  0  0  0  0  0
   31.5718    1.2293    0.0000 C   0  0  0  0  0  0  0  0  0  0  0  0
   33.0482    0.9639    0.0000 N   0  0  0  0  0  0  0  0  0  0  0  0
   31.2393    2.6920    0.0000 O   0  0  0  0  0  0  0  0  0  0  0  0
   29.1329   -1.2727    0.0000 C   0  0  0  0  0  0  0  0  0  0  0  0
   28.9451   -2.7609    0.0000 O   0  0  0  0  0  0  0  0  0  0  0  0
   30.5156   -0.6912    0.0000 N   0  0  0  0  0  0  0  0  0  0  0  0
   31.7105   -1.5980    0.0000 C   0  0  0  0  0  0  0  0  0  0  0  0
   32.5232   -2.8587    0.0000 C   0  0  0  0  0  0  0  0  0  0  0  0
   31.8378   -4.1929    0.0000 C   0  0  0  0  0  0  0  0  0  0  0  0
   32.6505   -5.4536    0.0000 O   0  0  0  0  0  0  0  0  0  0  0  0
   30.3396   -4.2664    0.0000 O   0  0  0  0  0  0  0  0  0  0  0  0
   33.0932   -1.0165    0.0000 C   0  0  0  0  0  0  0  0  0  0  0  0
   33.3613    0.0436    0.0000 O   0  0  0  0  0  0  0  0  0  0  0  0
   34.2881   -1.9232    0.0000 N   0  0  0  0  0  0  0  0  0  0  0  0
   35.6708   -1.3417    0.0000 C   0  0  0  0  0  0  0  0  0  0  0  0
   36.7713   -0.3224    0.0000 C   0  0  0  0  0  0  0  0  0  0  0  0
   37.4568    1.0118    0.0000 O   0  0  0  0  0  0  0  0  0  0  0  0
   38.2476   -0.5878    0.0000 C   0  0  0  0  0  0  0  0  0  0  0  0
   36.8658   -2.2485    0.0000 C   0  0  0  0  0  0  0  0  0  0  0  0
   36.6780   -3.7367    0.0000 O   0  0  0  0  0  0  0  0  0  0  0  0
   38.2485   -1.6670    0.0000 N   0  0  0  0  0  0  0  0  0  0  0  0
   39.4434   -2.5737    0.0000 C   0  0  0  0  0  0  0  0  0  0  0  0
   40.2561   -3.8345    0.0000 C   0  0  0  0  0  0  0  0  0  0  0  0
   39.5707   -5.1687    0.0000 C   0  0  0  0  0  0  0  0  0  0  0  0
   40.8261   -1.9923    0.0000 C   0  0  0  0  0  0  0  0  0  0  0  0
   41.0139   -0.5041    0.0000 O   0  0  0  0  0  0  0  0  0  0  0  0
   42.0210   -2.8990    0.0000 N   0  0  0  0  0  0  0  0  0  0  0  0
   43.4037   -2.3175    0.0000 C   0  0  0  0  0  0  0  0  0  0  0  0
   44.5042   -1.2982    0.0000 C   0  0  0  0  0  0  0  0  0  0  0  0
   45.9372   -1.7416    0.0000 C   0  0  0  0  0  0  0  0  0  0  0  0
   47.0376   -0.7223    0.0000 C   0  0  0  0  0  0  0  0  0  0  0  0
   48.4706   -1.1656    0.0000 N   0  0  0  0  0  0  0  0  0  0  0  0
   49.5711   -0.1463    0.0000 C   0  0  0  0  0  0  0  0  0  0  0  0
   50.9393   -0.7610    0.0000 N   0  0  0  0  0  0  0  0  0  0  0  0
   49.2385    1.3164    0.0000 N   0  0  0  0  0  0  0  0  0  0  0  0
   44.5987   -3.2243    0.0000 C   0  0  0  0  0  0  0  0  0  0  0  0
   44.4109   -4.7125    0.0000 O   0  0  0  0  0  0  0  0  0  0  0  0
   45.9814   -2.6428    0.0000 N   0  0  0  0  0  0  0  0  0  0  0  0
   47.1763   -3.5495    0.0000 C   0  0  0  0  0  0  0  0  0  0  0  0
   47.9890   -4.8103    0.0000 C   0  0  0  0  0  0  0  0  0  0  0  0
   47.3036   -6.1445    0.0000 C   0  0  0  0  0  0  0  0  0  0  0  0
   48.1163   -7.4052    0.0000 C   0  0  0  0  0  0  0  0  0  0  0  0
   47.4309   -8.7394    0.0000 O   0  0  0  0  0  0  0  0  0  0  0  0
   49.6145   -7.3317    0.0000 O   0  0  0  0  0  0  0  0  0  0  0  0
   48.5590   -2.9681    0.0000 C   0  0  0  0  0  0  0  0  0  0  0  0
   48.9983   -1.8353    0.0000 O   0  0  0  0  0  0  0  0  0  0  0  0
   49.7539   -3.8748    0.0000 N   0  0  0  0  0  0  0  0  0  0  0  0
   51.1367   -3.2933    0.0000 C   0  0  0  0  0  0  0  0  0  0  0  0
   52.2371   -2.2740    0.0000 C   0  0  0  0  0  0  0  0  0  0  0  0
   53.6701   -2.7174    0.0000 C   0  0  0  0  0  0  0  0  0  0  0  0
   54.7705   -1.6981    0.0000 C   0  0  0  0  0  0  0  0  0  0  0  0
   56.2035   -2.1414    0.0000 N   0  0  0  0  0  0  0  0  0  0  0  0
   54.4380   -0.2354    0.0000 O   0  0  0  0  0  0  0  0  0  0  0  0
   52.3316   -4.2001    0.0000 C   0  0  0  0  0  0  0  0  0  0  0  0
   53.7749   -3.7915    0.0000 O   0  0  0  0  0  0  0  0  0  0  0  0
   52.1438   -5.6883    0.0000 O   0  0  0  0  0  0  0  0  0  0  0  0
  -46.8823   -7.3734    0.0000 H   0  0  0  0  0  0  0  0  0  0  0  0
  -48.4817   -3.1752    0.0000 H   0  0  0  0  0  0  0  0  0  0  0  0
  -51.4217   -2.5783    0.0000 H   0  0  0  0  0  0  0  0  0  0  0  0
  -49.1856   -8.1099    0.0000 H   0  0  0  0  0  0  0  0  0  0  0  0
  -55.2245  -11.9629    0.0000 H   0  0  0  0  0  0  0  0  0  0  0  0
  -57.8635   -7.4868    0.0000 H   0  0  0  0  0  0  0  0  0  0  0  0
  -55.2792   -5.9631    0.0000 H   0  0  0  0  0  0  0  0  0  0  0  0
  -59.1420   -9.7485    0.0000 H   0  0  0  0  0  0  0  0  0  0  0  0
  -50.0833   -5.9158    0.0000 H   0  0  0  0  0  0  0  0  0  0  0  0
  -47.3884   -7.5552    0.0000 H   0  0  0  0  0  0  0  0  0  0  0  0
  -50.0286  -11.9155    0.0000 H   0  0  0  0  0  0  0  0  0  0  0  0
  -47.4306  -11.8918    0.0000 H   0  0  0  0  0  0  0  0  0  0  0  0
  -44.5886   -6.6168    0.0000 H   0  0  0  0  0  0  0  0  0  0  0  0
  -43.5224   -2.6748    0.0000 H   0  0  0  0  0  0  0  0  0  0  0  0
  -45.3509   -3.2874    0.0000 H   0  0  0  0  0  0  0  0  0  0  0  0
  -41.3224   -5.1524    0.0000 H   0  0  0  0  0  0  0  0  0  0  0  0
  -43.1509   -5.7650    0.0000 H   0  0  0  0  0  0  0  0  0  0  0  0
  -39.6616   -4.9661    0.0000 H   0  0  0  0  0  0  0  0  0  0  0  0
  -40.4239   -1.6367    0.0000 H   0  0  0  0  0  0  0  0  0  0  0  0
  -38.5568    0.4754    0.0000 H   0  0  0  0  0  0  0  0  0  0  0  0
  -40.0654   -0.7257    0.0000 H   0  0  0  0  0  0  0  0  0  0  0  0
  -36.5628    0.5940    0.0000 H   0  0  0  0  0  0  0  0  0  0  0  0
  -36.9807   -0.1249    0.0000 H   0  0  0  0  0  0  0  0  0  0  0  0
  -35.9264   -3.2116    0.0000 H   0  0  0  0  0  0  0  0  0  0  0  0
  -32.5092   -3.1518    0.0000 H   0  0  0  0  0  0  0  0  0  0  0  0
  -33.0612   -1.4549    0.0000 H   0  0  0  0  0  0  0  0  0  0  0  0
  -34.5198   -5.5717    0.0000 H   0  0  0  0  0  0  0  0  0  0  0  0
  -35.4660   -4.0588    0.0000 H   0  0  0  0  0  0  0  0  0  0  0  0
  -32.1013   -2.4214    0.0000 H   0  0  0  0  0  0  0  0  0  0  0  0
  -33.0334    0.8393    0.0000 H   0  0  0  0  0  0  0  0  0  0  0  0
  -31.1663    2.9514    0.0000 H   0  0  0  0  0  0  0  0  0  0  0  0
  -32.6750    1.7504    0.0000 H   0  0  0  0  0  0  0  0  0  0  0  0
  -28.2515    1.3757    0.0000 H   0  0  0  0  0  0  0  0  0  0  0  0
  -29.0516    0.3321    0.0000 H   0  0  0  0  0  0  0  0  0  0  0  0
  -29.4089    2.3767    0.0000 H   0  0  0  0  0  0  0  0  0  0  0  0
  -28.5359   -0.7356    0.0000 H   0  0  0  0  0  0  0  0  0  0  0  0
  -25.0714   -0.4988    0.0000 H   0  0  0  0  0  0  0  0  0  0  0  0
  -25.6708    1.0211    0.0000 H   0  0  0  0  0  0  0  0  0  0  0  0
  -28.0755   -1.5828    0.0000 H   0  0  0  0  0  0  0  0  0  0  0  0
  -25.1564   -3.9761    0.0000 H   0  0  0  0  0  0  0  0  0  0  0  0
  -23.8308   -2.7816    0.0000 H   0  0  0  0  0  0  0  0  0  0  0  0
  -24.5856   -1.1646    0.0000 H   0  0  0  0  0  0  0  0  0  0  0  0
  -26.3451   -4.3744    0.0000 H   0  0  0  0  0  0  0  0  0  0  0  0
  -28.1228   -4.2195    0.0000 H   0  0  0  0  0  0  0  0  0  0  0  0
  -28.4086   -2.3124    0.0000 H   0  0  0  0  0  0  0  0  0  0  0  0
  -24.7108    0.0546    0.0000 H   0  0  0  0  0  0  0  0  0  0  0  0
  -25.6429    3.3153    0.0000 H   0  0  0  0  0  0  0  0  0  0  0  0
  -23.7758    5.4274    0.0000 H   0  0  0  0  0  0  0  0  0  0  0  0
  -25.2845    4.2264    0.0000 H   0  0  0  0  0  0  0  0  0  0  0  0
  -21.9138    5.6171    0.0000 H   0  0  0  0  0  0  0  0  0  0  0  0
  -20.7903    4.2308    0.0000 H   0  0  0  0  0  0  0  0  0  0  0  0
  -21.7895    2.7561    0.0000 H   0  0  0  0  0  0  0  0  0  0  0  0
  -22.3767    4.7797    0.0000 H   0  0  0  0  0  0  0  0  0  0  0  0
  -21.1448    1.4303    0.0000 H   0  0  0  0  0  0  0  0  0  0  0  0
  -20.1602    0.3378    0.0000 H   0  0  0  0  0  0  0  0  0  0  0  0
  -19.7835   -0.1607    0.0000 H   0  0  0  0  0  0  0  0  0  0  0  0
  -18.8038   -0.7456    0.0000 H   0  0  0  0  0  0  0  0  0  0  0  0
  -18.2556   -1.0101    0.0000 H   0  0  0  0  0  0  0  0  0  0  0  0
  -16.8267   -1.3582    0.0000 H   0  0  0  0  0  0  0  0  0  0  0  0
  -15.7499   -1.6388    0.0000 H   0  0  0  0  0  0  0  0  0  0  0  0
  -21.0726    0.3348    0.0000 H   0  0  0  0  0  0  0  0  0  0  0  0
  -22.4217    0.8711    0.0000 H   0  0  0  0  0  0  0  0  0  0  0  0
  -22.6368    2.5285    0.0000 H   0  0  0  0  0  0  0  0  0  0  0  0
  -22.0597    6.5281    0.0000 H   0  0  0  0  0  0  0  0  0  0  0  0
  -21.5782    7.1576    0.0000 H   0  0  0  0  0  0  0  0  0  0  0  0
  -20.9685   10.2371    0.0000 H   0  0  0  0  0  0  0  0  0  0  0  0
  -19.4989    9.5233    0.0000 H   0  0  0  0  0  0  0  0  0  0  0  0
  -23.7151    8.3837    0.0000 H   0  0  0  0  0  0  0  0  0  0  0  0
  -22.2790    7.3246    0.0000 H   0  0  0  0  0  0  0  0  0  0  0  0
  -18.5735   10.7810    0.0000 H   0  0  0  0  0  0  0  0  0  0  0  0
  -17.4816   10.9954    0.0000 H   0  0  0  0  0  0  0  0  0  0  0  0
  -16.7465   12.4553    0.0000 H   0  0  0  0  0  0  0  0  0  0  0  0
  -14.8237   12.3096    0.0000 H   0  0  0  0  0  0  0  0  0  0  0  0
  -14.4654   10.7155    0.0000 H   0  0  0  0  0  0  0  0  0  0  0  0
  -13.0746   10.8456    0.0000 H   0  0  0  0  0  0  0  0  0  0  0  0
  -12.0567   10.0562    0.0000 H   0  0  0  0  0  0  0  0  0  0  0  0
   -9.3721    8.7975    0.0000 H   0  0  0  0  0  0  0  0  0  0  0  0
  -10.3950    7.5235    0.0000 H   0  0  0  0  0  0  0  0  0  0  0  0
  -12.8802   11.6945    0.0000 H   0  0  0  0  0  0  0  0  0  0  0  0
  -11.0706   14.2243    0.0000 H   0  0  0  0  0  0  0  0  0  0  0  0
   -7.9300   13.3378    0.0000 H   0  0  0  0  0  0  0  0  0  0  0  0
   -9.3747    6.3414    0.0000 H   0  0  0  0  0  0  0  0  0  0  0  0
  -10.1871    1.8322    0.0000 H   0  0  0  0  0  0  0  0  0  0  0  0
   -9.5632    2.9822    0.0000 H   0  0  0  0  0  0  0  0  0  0  0  0
  -11.1664    0.3989    0.0000 H   0  0  0  0  0  0  0  0  0  0  0  0
  -10.4011    1.2452    0.0000 H   0  0  0  0  0  0  0  0  0  0  0  0
  -12.8771   -0.7664    0.0000 H   0  0  0  0  0  0  0  0  0  0  0  0
  -11.6130   -0.0147    0.0000 H   0  0  0  0  0  0  0  0  0  0  0  0
  -13.8243   -1.3502    0.0000 H   0  0  0  0  0  0  0  0  0  0  0  0
   -7.9779    4.7788    0.0000 H   0  0  0  0  0  0  0  0  0  0  0  0
   -8.5596    6.4658    0.0000 H   0  0  0  0  0  0  0  0  0  0  0  0
  -10.0311    6.5940    0.0000 H   0  0  0  0  0  0  0  0  0  0  0  0
   -7.7812    5.6419    0.0000 H   0  0  0  0  0  0  0  0  0  0  0  0
   -8.1705    2.4034    0.0000 H   0  0  0  0  0  0  0  0  0  0  0  0
   -4.9464    1.1135    0.0000 H   0  0  0  0  0  0  0  0  0  0  0  0
   -4.8269    2.7430    0.0000 H   0  0  0  0  0  0  0  0  0  0  0  0
   -8.1233    1.4404    0.0000 H   0  0  0  0  0  0  0  0  0  0  0  0
   -6.5317   -1.9825    0.0000 H   0  0  0  0  0  0  0  0  0  0  0  0
   -4.8191   -1.4814    0.0000 H   0  0  0  0  0  0  0  0  0  0  0  0
   -4.7975    0.3029    0.0000 H   0  0  0  0  0  0  0  0  0  0  0  0
   -7.7755   -1.8256    0.0000 H   0  0  0  0  0  0  0  0  0  0  0  0
   -9.3099   -0.9147    0.0000 H   0  0  0  0  0  0  0  0  0  0  0  0
   -8.7399    0.9275    0.0000 H   0  0  0  0  0  0  0  0  0  0  0  0
   -4.3814    1.4558    0.0000 H   0  0  0  0  0  0  0  0  0  0  0  0
   -3.8064    4.7979    0.0000 H   0  0  0  0  0  0  0  0  0  0  0  0
   -1.2078    5.8907    0.0000 H   0  0  0  0  0  0  0  0  0  0  0  0
   -3.0882    5.4633    0.0000 H   0  0  0  0  0  0  0  0  0  0  0  0
    0.6402    5.1325    0.0000 H   0  0  0  0  0  0  0  0  0  0  0  0
   -0.0483    4.6662    0.0000 H   0  0  0  0  0  0  0  0  0  0  0  0
   -0.4376    1.4276    0.0000 H   0  0  0  0  0  0  0  0  0  0  0  0
    2.9060    1.7672    0.0000 H   0  0  0  0  0  0  0  0  0  0  0  0
    2.7815   -1.3622    0.0000 H   0  0  0  0  0  0  0  0  0  0  0  0
    1.5591   -1.6401    0.0000 H   0  0  0  0  0  0  0  0  0  0  0  0
   -0.1943   -1.3091    0.0000 H   0  0  0  0  0  0  0  0  0  0  0  0
   -0.3904    0.4646    0.0000 H   0  0  0  0  0  0  0  0  0  0  0  0
    3.3515    0.4800    0.0000 H   0  0  0  0  0  0  0  0  0  0  0  0
    3.9265    3.8222    0.0000 H   0  0  0  0  0  0  0  0  0  0  0  0
    6.3574    4.9886    0.0000 H   0  0  0  0  0  0  0  0  0  0  0  0
    4.6447    4.4875    0.0000 H   0  0  0  0  0  0  0  0  0  0  0  0
    7.2940    1.6375    0.0000 H   0  0  0  0  0  0  0  0  0  0  0  0
    9.8708    4.0732    0.0000 H   0  0  0  0  0  0  0  0  0  0  0  0
    9.0586    5.4909    0.0000 H   0  0  0  0  0  0  0  0  0  0  0  0
    7.2976    5.2023    0.0000 H   0  0  0  0  0  0  0  0  0  0  0  0
    8.6455    0.7412    0.0000 H   0  0  0  0  0  0  0  0  0  0  0  0
    9.9643    2.3304    0.0000 H   0  0  0  0  0  0  0  0  0  0  0  0
    9.3106    3.4714    0.0000 H   0  0  0  0  0  0  0  0  0  0  0  0
    7.8592    3.6347    0.0000 H   0  0  0  0  0  0  0  0  0  0  0  0
    7.2953    0.4518    0.0000 H   0  0  0  0  0  0  0  0  0  0  0  0
   10.5194   -0.8380    0.0000 H   0  0  0  0  0  0  0  0  0  0  0  0
   10.7172    0.6258    0.0000 H   0  0  0  0  0  0  0  0  0  0  0  0
    7.3425   -0.5112    0.0000 H   0  0  0  0  0  0  0  0  0  0  0  0
    8.9341   -3.9341    0.0000 H   0  0  0  0  0  0  0  0  0  0  0  0
   10.6467   -3.4330    0.0000 H   0  0  0  0  0  0  0  0  0  0  0  0
   10.6683   -1.6487    0.0000 H   0  0  0  0  0  0  0  0  0  0  0  0
    7.6904   -3.7772    0.0000 H   0  0  0  0  0  0  0  0  0  0  0  0
    6.1559   -2.8663    0.0000 H   0  0  0  0  0  0  0  0  0  0  0  0
    6.7259   -1.0241    0.0000 H   0  0  0  0  0  0  0  0  0  0  0  0
   11.0844   -0.4958    0.0000 H   0  0  0  0  0  0  0  0  0  0  0  0
   11.6594    2.8464    0.0000 H   0  0  0  0  0  0  0  0  0  0  0  0
   14.2580    3.9392    0.0000 H   0  0  0  0  0  0  0  0  0  0  0  0
   12.3777    3.5117    0.0000 H   0  0  0  0  0  0  0  0  0  0  0  0
   16.2005    1.2549    0.0000 H   0  0  0  0  0  0  0  0  0  0  0  0
   15.0269    0.6617    0.0000 H   0  0  0  0  0  0  0  0  0  0  0  0
   15.5921    2.6589    0.0000 H   0  0  0  0  0  0  0  0  0  0  0  0
   15.1442   -0.6657    0.0000 H   0  0  0  0  0  0  0  0  0  0  0  0
   18.1329   -1.9527    0.0000 H   0  0  0  0  0  0  0  0  0  0  0  0
   18.3718   -0.1844    0.0000 H   0  0  0  0  0  0  0  0  0  0  0  0
   16.4992   -4.8363    0.0000 H   0  0  0  0  0  0  0  0  0  0  0  0
   18.6829   -3.4286    0.0000 H   0  0  0  0  0  0  0  0  0  0  0  0
   18.8173   -1.4716    0.0000 H   0  0  0  0  0  0  0  0  0  0  0  0
   19.3923    1.8706    0.0000 H   0  0  0  0  0  0  0  0  0  0  0  0
   22.8022    1.7289    0.0000 H   0  0  0  0  0  0  0  0  0  0  0  0
   21.9909    2.9634    0.0000 H   0  0  0  0  0  0  0  0  0  0  0  0
   20.1106    2.5359    0.0000 H   0  0  0  0  0  0  0  0  0  0  0  0
   23.1505    1.7388    0.0000 H   0  0  0  0  0  0  0  0  0  0  0  0
   22.7611   -1.4997    0.0000 H   0  0  0  0  0  0  0  0  0  0  0  0
   26.1047   -1.1602    0.0000 H   0  0  0  0  0  0  0  0  0  0  0  0
   24.7453   -4.5860    0.0000 H   0  0  0  0  0  0  0  0  0  0  0  0
   23.0044   -4.2364    0.0000 H   0  0  0  0  0  0  0  0  0  0  0  0
   22.8083   -2.4628    0.0000 H   0  0  0  0  0  0  0  0  0  0  0  0
   27.4182   -3.2330    0.0000 H   0  0  0  0  0  0  0  0  0  0  0  0
   26.9732   -1.6609    0.0000 H   0  0  0  0  0  0  0  0  0  0  0  0
   26.9924   -5.1846    0.0000 H   0  0  0  0  0  0  0  0  0  0  0  0
   25.1120   -5.6120    0.0000 H   0  0  0  0  0  0  0  0  0  0  0  0
   24.2998   -4.1944    0.0000 H   0  0  0  0  0  0  0  0  0  0  0  0
   26.7331   -2.4368    0.0000 H   0  0  0  0  0  0  0  0  0  0  0  0
   27.1252    0.8948    0.0000 H   0  0  0  0  0  0  0  0  0  0  0  0
   29.7238    1.9876    0.0000 H   0  0  0  0  0  0  0  0  0  0  0  0
   27.8435    1.5601    0.0000 H   0  0  0  0  0  0  0  0  0  0  0  0
   31.6663   -0.6967    0.0000 H   0  0  0  0  0  0  0  0  0  0  0  0
   30.4927   -1.2898    0.0000 H   0  0  0  0  0  0  0  0  0  0  0  0
   34.1052    1.8053    0.0000 H   0  0  0  0  0  0  0  0  0  0  0  0
   33.7257   -0.5580    0.0000 H   0  0  0  0  0  0  0  0  0  0  0  0
   31.0579    0.7073    0.0000 H   0  0  0  0  0  0  0  0  0  0  0  0
   30.6100   -2.6173    0.0000 H   0  0  0  0  0  0  0  0  0  0  0  0
   33.5987   -3.9043    0.0000 H   0  0  0  0  0  0  0  0  0  0  0  0
   33.8376   -2.1359    0.0000 H   0  0  0  0  0  0  0  0  0  0  0  0
   34.2831   -3.4232    0.0000 H   0  0  0  0  0  0  0  0  0  0  0  0
   34.8581   -0.0810    0.0000 H   0  0  0  0  0  0  0  0  0  0  0  0
   35.5764    0.5843    0.0000 H   0  0  0  0  0  0  0  0  0  0  0  0
   38.9348    1.2674    0.0000 H   0  0  0  0  0  0  0  0  0  0  0  0
   39.4208    0.1118    0.0000 H   0  0  0  0  0  0  0  0  0  0  0  0
   39.3992   -1.6725    0.0000 H   0  0  0  0  0  0  0  0  0  0  0  0
   38.2256   -2.2656    0.0000 H   0  0  0  0  0  0  0  0  0  0  0  0
   38.6163   -0.2128    0.0000 H   0  0  0  0  0  0  0  0  0  0  0  0
   38.2269   -3.4513    0.0000 H   0  0  0  0  0  0  0  0  0  0  0  0
   41.3316   -4.8801    0.0000 H   0  0  0  0  0  0  0  0  0  0  0  0
   41.5705   -3.1117    0.0000 H   0  0  0  0  0  0  0  0  0  0  0  0
   40.3834   -6.4294    0.0000 H   0  0  0  0  0  0  0  0  0  0  0  0
   38.4702   -6.1880    0.0000 H   0  0  0  0  0  0  0  0  0  0  0  0
   38.2741   -4.4144    0.0000 H   0  0  0  0  0  0  0  0  0  0  0  0
   42.0160   -4.3990    0.0000 H   0  0  0  0  0  0  0  0  0  0  0  0
   42.5910   -1.0568    0.0000 H   0  0  0  0  0  0  0  0  0  0  0  0
   45.0219    0.1096    0.0000 H   0  0  0  0  0  0  0  0  0  0  0  0
   43.3093   -0.3915    0.0000 H   0  0  0  0  0  0  0  0  0  0  0  0
   47.1321   -2.6483    0.0000 H   0  0  0  0  0  0  0  0  0  0  0  0
   45.9585   -3.2414    0.0000 H   0  0  0  0  0  0  0  0  0  0  0  0
   47.7231    0.6120    0.0000 H   0  0  0  0  0  0  0  0  0  0  0  0
   45.9621    0.3234    0.0000 H   0  0  0  0  0  0  0  0  0  0  0  0
   49.1472   -2.5044    0.0000 H   0  0  0  0  0  0  0  0  0  0  0  0
   52.1045    0.4296    0.0000 H   0  0  0  0  0  0  0  0  0  0  0  0
   51.1762   -2.0911    0.0000 H   0  0  0  0  0  0  0  0  0  0  0  0
   50.3390    2.3357    0.0000 H   0  0  0  0  0  0  0  0  0  0  0  0
   47.8056    1.7597    0.0000 H   0  0  0  0  0  0  0  0  0  0  0  0
   46.5237   -1.2443    0.0000 H   0  0  0  0  0  0  0  0  0  0  0  0
   45.9598   -4.4271    0.0000 H   0  0  0  0  0  0  0  0  0  0  0  0
   49.0645   -5.8559    0.0000 H   0  0  0  0  0  0  0  0  0  0  0  0
   49.3034   -4.0875    0.0000 H   0  0  0  0  0  0  0  0  0  0  0  0
   46.2031   -7.1638    0.0000 H   0  0  0  0  0  0  0  0  0  0  0  0
   46.0070   -5.3902    0.0000 H   0  0  0  0  0  0  0  0  0  0  0  0
   49.7490   -5.3748    0.0000 H   0  0  0  0  0  0  0  0  0  0  0  0
   50.3239   -2.0326    0.0000 H   0  0  0  0  0  0  0  0  0  0  0  0
   52.9226   -0.9398    0.0000 H   0  0  0  0  0  0  0  0  0  0  0  0
   50.8583   -1.6834    0.0000 H   0  0  0  0  0  0  0  0  0  0  0  0
   54.8650   -3.6241    0.0000 H   0  0  0  0  0  0  0  0  0  0  0  0
   53.5084   -4.2086    0.0000 H   0  0  0  0  0  0  0  0  0  0  0  0
   57.3040   -1.1221    0.0000 H   0  0  0  0  0  0  0  0  0  0  0  0
   56.5360   -3.6041    0.0000 H   0  0  0  0  0  0  0  0  0  0  0  0
  1  2  1  0
  2  3  1  0
  3  4  2  0
  4  5  1  0
  5  6  2  0
  6  7  1  0
  7  8  2  0
  7  9  1  0
  9 10  1  0
 10 11  1  0
 11 12  2  0
  9 13  1  0
 13 14  1  0
 14 15  2  0
 15 16  1  0
 16 17  2  0
 17 18  1  0
 16 19  1  0
 14 20  1  0
 20 21  1  0
 21 22  2  0
 22 23  1  0
 23 24  2  0
 24 25  1  0
 25 26  2  0
 25 27  1  0
  1 28  2  0
  1 29  1  0
 29 30  1  0
 30 31  1  0
 31 32  1  0
 32 33  2  0
 32 34  1  0
 34 35  1  0
 35 36  1  0
 36 37  1  0
 35 38  1  0
 38 39  2  0
 38 40  1  0
 40 41  1  0
 41 42  1  0
 42 43  1  0
 43 44  1  0
 44 45  2  0
 44 46  1  0
 41 47  1  0
 47 48  2  0
 47 49  1  0
 49 50  1  0
 50 51  1  0
 51 52  1  0
 52 53  1  0
 53 54  2  0
 53 55  1  0
 50 56  1  0
 56 57  2  0
 56 58  1  0
 58 59  1  0
 59 60  1  0
 60 61  1  0
 61 62  1  0
 61 63  1  0
 59 64  1  0
 64 65  2  0
 64 66  1  0
 66 67  1  0
 67 68  1  0
 68 69  1  0
 67 70  1  0
 70 71  2  0
 70 72  1  0
 73 72  1  6
 73 74  1  0
 74 75  1  0
 75 76  1  0
 76 77  1  0
 73 78  1  0
 73 79  1  0
 79 80  2  0
 79 81  1  0
 81 82  1  0
 82 83  1  0
 83 84  1  0
 84 85  1  0
 85 86  2  0
 85 87  1  0
 82 88  1  0
 88 89  2  0
 88 90  1  0
 90 91  1  0
 91 92  1  0
 91 93  1  0
 93 94  2  0
 93 95  1  0
 95 96  1  0
 96 97  1  0
 97 98  1  0
 98 99  2  0
 99100  1  0
100101  1  0
101102  2  0
 96103  1  0
103104  2  0
103105  1  0
105106  1  0
106107  1  0
107108  1  0
108109  1  0
109110  1  0
106111  1  0
106112  1  6
112113  2  0
112114  1  0
114115  1  0
115116  1  0
116117  1  0
117118  1  0
117119  1  0
115120  1  0
120121  2  0
120122  1  0
122123  1  0
123124  1  0
124125  1  0
123126  1  0
126127  2  0
126128  1  0
128129  1  0
129130  1  0
130131  1  0
130132  1  0
129133  1  0
133134  2  0
133135  1  0
135136  1  0
136137  1  0
137138  1  0
138139  1  0
138140  1  0
136141  1  0
141142  2  0
141143  1  0
143144  1  0
144145  1  0
145146  1  0
146147  1  0
146148  1  0
144149  1  0
149150  2  0
149151  1  0
151152  1  0
152153  1  0
153154  1  0
154155  1  0
155156  2  0
155157  1  0
152158  1  0
158159  2  0
158160  1  0
160161  1  0
161162  1  0
162163  1  0
163164  1  0
163165  2  0
161166  1  0
166167  2  0
166168  1  0
168169  1  0
169170  1  0
169171  1  0
171172  2  0
171173  1  0
173174  1  0
174175  1  0
175176  1  0
175177  1  0
177178  1  0
174179  1  0
179180  2  0
179181  1  0
181182  1  0
182183  1  0
183184  1  0
184185  1  0
185186  1  0
185187  2  0
182188  1  0
188189  2  0
188190  1  0
190191  1  0
191192  1  0
192193  1  0
193194  2  0
193195  1  0
191196  1  0
196197  2  0
196198  1  0
198199  1  0
199200  1  0
200201  1  0
200202  1  0
199203  1  0
203204  2  0
203205  1  0
205206  1  0
206207  1  0
207208  1  0
206209  1  0
209210  2  0
209211  1  0
211212  1  0
212213  1  0
213214  1  0
214215  1  0
215216  1  0
216217  1  0
217218  2  3
217219  1  0
212220  1  0
220221  2  0
220222  1  0
222223  1  0
223224  1  0
224225  1  0
225226  1  0
226227  2  0
226228  1  0
223229  1  0
229230  2  0
229231  1  0
231232  1  0
232233  1  0
233234  1  0
234235  1  0
235236  1  0
235237  2  0
232238  1  0
238239  2  0
238240  1  0
  8  3  1  0
102 98  1  0
 11  6  1  0
 18 13  2  0
 77110  2  0
 22  9  1  0
 26 21  1  0
  2241  1  0
  4242  1  0
  5243  1  0
  8244  1  0
 15245  1  0
 17246  1  0
 18247  1  0
 19248  1  0
 23249  1  0
 24250  1  0
 26251  1  0
 27252  1  0
 29253  1  0
 30254  1  0
 30255  1  0
 31256  1  0
 31257  1  0
 34258  1  0
 35259  1  1
 36260  1  0
 36261  1  0
 37262  1  0
 40263  1  0
 41264  1  6
 42265  1  0
 42266  1  0
 43267  1  0
 43268  1  0
 49269  1  0
 50270  1  1
 51271  1  0
 51272  1  0
 52273  1  0
 52274  1  0
 58275  1  0
 59276  1  6
 60277  1  0
 60278  1  0
 61279  1  0
 62280  1  0
 62281  1  0
 62282  1  0
 63283  1  0
 63284  1  0
 63285  1  0
 66286  1  0
 67287  1  1
 68288  1  0
 68289  1  0
 69290  1  0
 69291  1  0
 69292  1  0
 72293  1  0
 74294  1  0
 74295  1  0
 75296  1  0
 75297  1  0
 76298  1  0
 76299  1  0
 77300  1  0
 78301  1  0
 78302  1  0
 78303  1  0
 81304  1  0
 82305  1  1
 83306  1  0
 83307  1  0
 84308  1  0
 84309  1  0
 90310  1  0
 91311  1  1
 92312  1  0
 92313  1  0
 92314  1  0
 95315  1  0
 96316  1  1
 97317  1  0
 97318  1  0
 99319  1  0
100320  1  0
101321  1  0
105322  1  0
107323  1  0
107324  1  0
108325  1  0
108326  1  0
109327  1  0
109328  1  0
110329  1  0
111330  1  0
111331  1  0
111332  1  0
114333  1  0
115334  1  6
116335  1  0
116336  1  0
117337  1  0
118338  1  0
118339  1  0
118340  1  0
119341  1  0
119342  1  0
119343  1  0
122344  1  0
123345  1  1
124346  1  0
124347  1  0
125348  1  0
128349  1  0
129350  1  6
130351  1  1
131352  1  0
132353  1  0
132354  1  0
132355  1  0
135356  1  0
136357  1  1
137358  1  0
137359  1  0
138360  1  0
139361  1  0
139362  1  0
139363  1  0
140364  1  0
140365  1  0
140366  1  0
143367  1  0
144368  1  6
145369  1  0
145370  1  0
146371  1  0
147372  1  0
147373  1  0
147374  1  0
148375  1  0
148376  1  0
148377  1  0
151378  1  0
152379  1  1
153380  1  0
153381  1  0
154382  1  0
154383  1  0
160384  1  0
161385  1  6
162386  1  0
162387  1  0
164388  1  0
164389  1  0
168390  1  0
169391  1  1
170392  1  0
170393  1  0
170394  1  0
173395  1  0
174396  1  6
175397  1  1
176398  1  0
176399  1  0
176400  1  0
177401  1  0
177402  1  0
178403  1  0
178404  1  0
178405  1  0
181406  1  0
182407  1  1
183408  1  0
183409  1  0
184410  1  0
184411  1  0
186412  1  0
186413  1  0
190414  1  0
191415  1  6
192416  1  0
192417  1  0
198418  1  0
199419  1  1
200420  1  1
201421  1  0
202422  1  0
202423  1  0
202424  1  0
205425  1  0
206426  1  6
207427  1  0
207428  1  0
208429  1  0
208430  1  0
208431  1  0
211432  1  0
212433  1  1
213434  1  0
213435  1  0
214436  1  0
214437  1  0
215438  1  0
215439  1  0
216440  1  0
218441  1  0
218442  1  0
219443  1  0
219444  1  0
222445  1  0
223446  1  6
224447  1  0
224448  1  0
225449  1  0
225450  1  0
231451  1  0
232452  1  1
233453  1  0
233454  1  0
234455  1  0
234456  1  0
236457  1  0
236458  1  0
M  CHG  8  46  -1  55  -1  87  -1 157  -1 195  -1 218   1 228  -1 240  -1
M  END
