
     RDKit          2D

485493  0  0  0  0  0  0  0  0999 V2000
   30.5949   -7.2717    0.0000 C   0  0  0  0  0  0  0  0  0  0  0  0
   32.0619   -6.9588    0.0000 N   0  0  0  0  0  0  0  0  0  0  0  0
   33.0664   -8.0727    0.0000 C   0  0  0  0  0  0  0  0  0  0  0  0
   32.6039   -9.4997    0.0000 C   0  0  0  0  0  0  0  0  0  0  0  0
   33.6084  -10.6136    0.0000 C   0  0  0  0  0  0  0  0  0  0  0  0
   35.0754  -10.3007    0.0000 C   0  0  0  0  0  0  0  0  0  0  0  0
   35.5379   -8.8738    0.0000 C   0  0  0  0  0  0  0  0  0  0  0  0
   34.5334   -7.7598    0.0000 C   0  0  0  0  0  0  0  0  0  0  0  0
   37.0379   -8.8727    0.0000 C   0  0  0  0  0  0  0  0  0  0  0  0
   37.5025  -10.2989    0.0000 O   0  0  0  0  0  0  0  0  0  0  0  0
   36.2896  -11.1815    0.0000 C   0  0  0  0  0  0  0  0  0  0  0  0
   36.2907  -12.6815    0.0000 O   0  0  0  0  0  0  0  0  0  0  0  0
   38.5298   -9.0284    0.0000 C   0  0  0  0  0  0  0  0  0  0  0  0
   39.4106   -7.8142    0.0000 C   0  0  0  0  0  0  0  0  0  0  0  0
   40.9025   -7.9699    0.0000 C   0  0  0  0  0  0  0  0  0  0  0  0
   41.5136   -9.3398    0.0000 C   0  0  0  0  0  0  0  0  0  0  0  0
   40.6328  -10.5539    0.0000 C   0  0  0  0  0  0  0  0  0  0  0  0
   39.1409  -10.3982    0.0000 C   0  0  0  0  0  0  0  0  0  0  0  0
   43.0055   -9.4955    0.0000 O   0  0  0  0  0  0  0  0  0  0  0  0
   38.7995   -6.4443    0.0000 O   0  0  0  0  0  0  0  0  0  0  0  0
   37.3076   -6.2886    0.0000 C   0  0  0  0  0  0  0  0  0  0  0  0
   36.4268   -7.5028    0.0000 C   0  0  0  0  0  0  0  0  0  0  0  0
   35.3459   -6.7805    0.0000 C   0  0  0  0  0  0  0  0  0  0  0  0
   35.0200   -6.0499    0.0000 C   0  0  0  0  0  0  0  0  0  0  0  0
   35.4898   -5.4023    0.0000 C   0  0  0  0  0  0  0  0  0  0  0  0
   36.2854   -5.4854    0.0000 C   0  0  0  0  0  0  0  0  0  0  0  0
   34.5935   -3.3932    0.0000 O   0  0  0  0  0  0  0  0  0  0  0  0
   30.1324   -8.6986    0.0000 S   0  0  0  0  0  0  0  0  0  0  0  0
   29.5904   -6.1577    0.0000 N   0  0  0  0  0  0  0  0  0  0  0  0
   28.1234   -6.4707    0.0000 C   0  0  0  0  0  0  0  0  0  0  0  0
   27.1189   -5.3567    0.0000 C   0  0  0  0  0  0  0  0  0  0  0  0
   25.6519   -5.6696    0.0000 C   0  0  0  0  0  0  0  0  0  0  0  0
   25.5969   -6.4649    0.0000 O   0  0  0  0  0  0  0  0  0  0  0  0
   24.6474   -4.5557    0.0000 N   0  0  0  0  0  0  0  0  0  0  0  0
   23.1804   -4.8686    0.0000 C   0  0  0  0  0  0  0  0  0  0  0  0
   23.7433   -6.2590    0.0000 C   0  0  0  0  0  0  0  0  0  0  0  0
   25.2289   -6.4666    0.0000 C   0  0  0  0  0  0  0  0  0  0  0  0
   25.7918   -7.8570    0.0000 N   0  0  0  0  0  0  0  0  0  0  0  0
   26.4103   -5.5423    0.0000 O   0  0  0  0  0  0  0  0  0  0  0  0
   21.6948   -4.6609    0.0000 C   0  0  0  0  0  0  0  0  0  0  0  0
   21.0858   -6.0317    0.0000 O   0  0  0  0  0  0  0  0  0  0  0  0
   21.1319   -3.2706    0.0000 N   0  0  0  0  0  0  0  0  0  0  0  0
   19.6463   -3.0629    0.0000 C   0  0  0  0  0  0  0  0  0  0  0  0
   19.6998   -4.5619    0.0000 C   0  0  0  0  0  0  0  0  0  0  0  0
   21.0247   -5.2652    0.0000 C   0  0  0  0  0  0  0  0  0  0  0  0
   21.0782   -6.7642    0.0000 C   0  0  0  0  0  0  0  0  0  0  0  0
   22.3075   -7.6237    0.0000 O   0  0  0  0  0  0  0  0  0  0  0  0
   19.8067   -7.5600    0.0000 O   0  0  0  0  0  0  0  0  0  0  0  0
   18.3214   -2.3597    0.0000 C   0  0  0  0  0  0  0  0  0  0  0  0
   17.2803   -3.4395    0.0000 O   0  0  0  0  0  0  0  0  0  0  0  0
   18.2680   -0.8606    0.0000 N   0  0  0  0  0  0  0  0  0  0  0  0
   16.9430   -0.1574    0.0000 C   0  0  0  0  0  0  0  0  0  0  0  0
   16.4805   -1.5843    0.0000 C   0  0  0  0  0  0  0  0  0  0  0  0
   17.4851   -2.6983    0.0000 C   0  0  0  0  0  0  0  0  0  0  0  0
   17.0226   -4.1252    0.0000 C   0  0  0  0  0  0  0  0  0  0  0  0
   18.8100   -3.4015    0.0000 C   0  0  0  0  0  0  0  0  0  0  0  0
   15.9385    0.9566    0.0000 C   0  0  0  0  0  0  0  0  0  0  0  0
   14.5908    0.2980    0.0000 O   0  0  0  0  0  0  0  0  0  0  0  0
   16.4010    2.3835    0.0000 N   0  0  0  0  0  0  0  0  0  0  0  0
   15.3965    3.4975    0.0000 C   0  0  0  0  0  0  0  0  0  0  0  0
   14.8444    2.1028    0.0000 C   0  0  0  0  0  0  0  0  0  0  0  0
   14.0384    0.8378    0.0000 C   0  0  0  0  0  0  0  0  0  0  0  0
   13.0075   -0.2519    0.0000 C   0  0  0  0  0  0  0  0  0  0  0  0
   11.7891   -1.1267    0.0000 C   0  0  0  0  0  0  0  0  0  0  0  0
   10.4271   -1.7552    0.0000 C   0  0  0  0  0  0  0  0  0  0  0  0
    8.9707   -2.1145    0.0000 C   0  0  0  0  0  0  0  0  0  0  0  0
    7.4727   -2.1917    0.0000 C   0  0  0  0  0  0  0  0  0  0  0  0
   16.8407    3.9029    0.0000 C   0  0  0  0  0  0  0  0  0  0  0  0
   15.6746    4.9715    0.0000 C   0  0  0  0  0  0  0  0  0  0  0  0
   17.1739    5.0179    0.0000 O   0  0  0  0  0  0  0  0  0  0  0  0
   15.6687    6.4715    0.0000 N   0  0  0  0  0  0  0  0  0  0  0  0
   15.3791    7.9433    0.0000 C   0  0  0  0  0  0  0  0  0  0  0  0
   16.3749    9.0651    0.0000 C   0  0  0  0  0  0  0  0  0  0  0  0
   17.8443    8.7636    0.0000 C   0  0  0  0  0  0  0  0  0  0  0  0
   18.8401    9.8854    0.0000 C   0  0  0  0  0  0  0  0  0  0  0  0
   20.3094    9.5839    0.0000 N   0  0  0  0  0  0  0  0  0  0  0  0
   21.3052   10.7057    0.0000 C   0  0  0  0  0  0  0  0  0  0  0  0
   22.7746   10.4042    0.0000 N   0  0  0  0  0  0  0  0  0  0  0  0
   20.8316   12.1290    0.0000 N   0  0  0  0  0  0  0  0  0  0  0  0
   14.8162    9.3336    0.0000 C   0  0  0  0  0  0  0  0  0  0  0  0
   16.0524   10.1832    0.0000 O   0  0  0  0  0  0  0  0  0  0  0  0
   14.0003   10.5923    0.0000 N   0  0  0  0  0  0  0  0  0  0  0  0
   12.9609   11.6739    0.0000 C   0  0  0  0  0  0  0  0  0  0  0  0
   13.1921   13.1560    0.0000 C   0  0  0  0  0  0  0  0  0  0  0  0
   14.5913   13.6968    0.0000 O   0  0  0  0  0  0  0  0  0  0  0  0
   11.7357   12.5392    0.0000 C   0  0  0  0  0  0  0  0  0  0  0  0
   12.3163   13.9222    0.0000 O   0  0  0  0  0  0  0  0  0  0  0  0
   10.3688   13.1570    0.0000 N   0  0  0  0  0  0  0  0  0  0  0  0
    8.9097   13.5049    0.0000 C   0  0  0  0  0  0  0  0  0  0  0  0
    8.3030   14.8767    0.0000 C   0  0  0  0  0  0  0  0  0  0  0  0
    9.1876   16.0881    0.0000 C   0  0  0  0  0  0  0  0  0  0  0  0
   10.6790   15.9277    0.0000 C   0  0  0  0  0  0  0  0  0  0  0  0
   11.5636   17.1390    0.0000 C   0  0  0  0  0  0  0  0  0  0  0  0
   10.9569   18.5108    0.0000 C   0  0  0  0  0  0  0  0  0  0  0  0
    9.4655   18.6713    0.0000 C   0  0  0  0  0  0  0  0  0  0  0  0
    8.5808   17.4599    0.0000 C   0  0  0  0  0  0  0  0  0  0  0  0
    7.4112   13.5704    0.0000 C   0  0  0  0  0  0  0  0  0  0  0  0
    7.1519   15.0479    0.0000 O   0  0  0  0  0  0  0  0  0  0  0  0
    5.9273   13.3512    0.0000 N   0  0  0  0  0  0  0  0  0  0  0  0
    4.5117   12.8550    0.0000 C   0  0  0  0  0  0  0  0  0  0  0  0
    3.2596   13.6810    0.0000 C   0  0  0  0  0  0  0  0  0  0  0  0
    3.3489   15.1784    0.0000 C   0  0  0  0  0  0  0  0  0  0  0  0
    4.6903   15.8497    0.0000 C   0  0  0  0  0  0  0  0  0  0  0  0
    4.7796   17.3470    0.0000 C   0  0  0  0  0  0  0  0  0  0  0  0
    3.5275   18.1730    0.0000 C   0  0  0  0  0  0  0  0  0  0  0  0
    2.1861   17.5017    0.0000 C   0  0  0  0  0  0  0  0  0  0  0  0
    2.0968   16.0044    0.0000 C   0  0  0  0  0  0  0  0  0  0  0  0
    3.2156   12.1000    0.0000 C   0  0  0  0  0  0  0  0  0  0  0  0
    2.1987   13.2027    0.0000 O   0  0  0  0  0  0  0  0  0  0  0  0
    2.0858   11.1132    0.0000 N   0  0  0  0  0  0  0  0  0  0  0  0
    1.1632    9.9305    0.0000 C   0  0  0  0  0  0  0  0  0  0  0  0
   -0.3367    9.9485    0.0000 C   0  0  0  0  0  0  0  0  0  0  0  0
    0.4811    8.5946    0.0000 C   0  0  0  0  0  0  0  0  0  0  0  0
   -0.9705    8.9725    0.0000 O   0  0  0  0  0  0  0  0  0  0  0  0
    0.0641    7.1537    0.0000 N   0  0  0  0  0  0  0  0  0  0  0  0
   -0.0727    5.6600    0.0000 C   0  0  0  0  0  0  0  0  0  0  0  0
   -1.3441    4.8642    0.0000 C   0  0  0  0  0  0  0  0  0  0  0  0
   -2.6691    5.5674    0.0000 C   0  0  0  0  0  0  0  0  0  0  0  0
   -3.9406    4.7716    0.0000 C   0  0  0  0  0  0  0  0  0  0  0  0
   -3.6736    6.6814    0.0000 C   0  0  0  0  0  0  0  0  0  0  0  0
    0.0758    4.1673    0.0000 C   0  0  0  0  0  0  0  0  0  0  0  0
   -1.3497    3.7005    0.0000 O   0  0  0  0  0  0  0  0  0  0  0  0
    0.5040    2.7298    0.0000 N   0  0  0  0  0  0  0  0  0  0  0  0
    1.1965    1.3992    0.0000 C   0  0  0  0  0  0  0  0  0  0  0  0
    2.1284    0.2238    0.0000 C   0  0  0  0  0  0  0  0  0  0  0  0
    3.2658   -0.7541    0.0000 C   0  0  0  0  0  0  0  0  0  0  0  0
    4.5678   -1.4990    0.0000 C   0  0  0  0  0  0  0  0  0  0  0  0
    5.9872   -1.9841    0.0000 C   0  0  0  0  0  0  0  0  0  0  0  0
   -0.3032    1.3696    0.0000 C   0  0  0  0  0  0  0  0  0  0  0  0
    0.5571    0.0423    0.0000 C   0  0  0  0  0  0  0  0  0  0  0  0
    1.0890   -1.3602    0.0000 O   0  0  0  0  0  0  0  0  0  0  0  0
   -0.9377   -0.0824    0.0000 N   0  0  0  0  0  0  0  0  0  0  0  0
   -1.5771   -1.4393    0.0000 C   0  0  0  0  0  0  0  0  0  0  0  0
   -1.7138   -2.9331    0.0000 C   0  0  0  0  0  0  0  0  0  0  0  0
   -3.0758   -3.5615    0.0000 C   0  0  0  0  0  0  0  0  0  0  0  0
   -3.2126   -5.0553    0.0000 O   0  0  0  0  0  0  0  0  0  0  0  0
   -4.4741   -3.0184    0.0000 O   0  0  0  0  0  0  0  0  0  0  0  0
   -3.0719   -1.5640    0.0000 C   0  0  0  0  0  0  0  0  0  0  0  0
   -3.9273   -0.3318    0.0000 O   0  0  0  0  0  0  0  0  0  0  0  0
   -3.7113   -2.9209    0.0000 N   0  0  0  0  0  0  0  0  0  0  0  0
   -5.2061   -3.0456    0.0000 C   0  0  0  0  0  0  0  0  0  0  0  0
   -6.6534   -2.6516    0.0000 C   0  0  0  0  0  0  0  0  0  0  0  0
   -7.7183   -3.7080    0.0000 C   0  0  0  0  0  0  0  0  0  0  0  0
   -9.1656   -3.3139    0.0000 C   0  0  0  0  0  0  0  0  0  0  0  0
  -10.3514   -4.2326    0.0000 N   0  0  0  0  0  0  0  0  0  0  0  0
   -9.5480   -1.8635    0.0000 O   0  0  0  0  0  0  0  0  0  0  0  0
   -5.8455   -4.4025    0.0000 C   0  0  0  0  0  0  0  0  0  0  0  0
   -4.9901   -5.6347    0.0000 O   0  0  0  0  0  0  0  0  0  0  0  0
   -7.3403   -4.5272    0.0000 N   0  0  0  0  0  0  0  0  0  0  0  0
   -7.9797   -5.8841    0.0000 C   0  0  0  0  0  0  0  0  0  0  0  0
   -8.1164   -7.3779    0.0000 C   0  0  0  0  0  0  0  0  0  0  0  0
   -9.3917   -8.1677    0.0000 C   0  0  0  0  0  0  0  0  0  0  0  0
   -7.7340   -8.8283    0.0000 C   0  0  0  0  0  0  0  0  0  0  0  0
   -6.2867   -9.2224    0.0000 C   0  0  0  0  0  0  0  0  0  0  0  0
   -9.4745   -6.0089    0.0000 C   0  0  0  0  0  0  0  0  0  0  0  0
  -10.4737   -4.8901    0.0000 O   0  0  0  0  0  0  0  0  0  0  0  0
  -10.1139   -7.3658    0.0000 N   0  0  0  0  0  0  0  0  0  0  0  0
  -11.6087   -7.4905    0.0000 C   0  0  0  0  0  0  0  0  0  0  0  0
  -13.0560   -7.0964    0.0000 C   0  0  0  0  0  0  0  0  0  0  0  0
  -14.1209   -8.1528    0.0000 C   0  0  0  0  0  0  0  0  0  0  0  0
  -15.5682   -7.7587    0.0000 O   0  0  0  0  0  0  0  0  0  0  0  0
  -14.1009   -9.6527    0.0000 O   0  0  0  0  0  0  0  0  0  0  0  0
  -12.2481   -8.8474    0.0000 C   0  0  0  0  0  0  0  0  0  0  0  0
  -11.3927  -10.0796    0.0000 O   0  0  0  0  0  0  0  0  0  0  0  0
  -13.7429   -8.9721    0.0000 N   0  0  0  0  0  0  0  0  0  0  0  0
  -14.3823  -10.3290    0.0000 C   0  0  0  0  0  0  0  0  0  0  0  0
  -14.5190  -11.8227    0.0000 C   0  0  0  0  0  0  0  0  0  0  0  0
  -15.8810  -12.4512    0.0000 C   0  0  0  0  0  0  0  0  0  0  0  0
  -16.0178  -13.9449    0.0000 C   0  0  0  0  0  0  0  0  0  0  0  0
  -17.2930  -14.7347    0.0000 N   0  0  0  0  0  0  0  0  0  0  0  0
  -14.7925  -14.8102    0.0000 O   0  0  0  0  0  0  0  0  0  0  0  0
  -15.8771  -10.4537    0.0000 C   0  0  0  0  0  0  0  0  0  0  0  0
  -16.7325   -9.2215    0.0000 O   0  0  0  0  0  0  0  0  0  0  0  0
  -16.5165  -11.8106    0.0000 N   0  0  0  0  0  0  0  0  0  0  0  0
  -18.0113  -11.9353    0.0000 C   0  0  0  0  0  0  0  0  0  0  0  0
  -19.4586  -11.5413    0.0000 C   0  0  0  0  0  0  0  0  0  0  0  0
  -19.4787  -10.0414    0.0000 C   0  0  0  0  0  0  0  0  0  0  0  0
  -20.9534  -11.6660    0.0000 C   0  0  0  0  0  0  0  0  0  0  0  0
  -21.4853  -10.2634    0.0000 C   0  0  0  0  0  0  0  0  0  0  0  0
  -18.6507  -13.2922    0.0000 C   0  0  0  0  0  0  0  0  0  0  0  0
  -17.9519  -14.6195    0.0000 O   0  0  0  0  0  0  0  0  0  0  0  0
  -20.1455  -13.4169    0.0000 N   0  0  0  0  0  0  0  0  0  0  0  0
  -20.9232  -14.6996    0.0000 C   0  0  0  0  0  0  0  0  0  0  0  0
  -22.3834  -14.3563    0.0000 C   0  0  0  0  0  0  0  0  0  0  0  0
  -22.5081  -12.8614    0.0000 C   0  0  0  0  0  0  0  0  0  0  0  0
  -21.1250  -12.2809    0.0000 C   0  0  0  0  0  0  0  0  0  0  0  0
  -21.8469  -10.9661    0.0000 C   0  0  0  0  0  0  0  0  0  0  0  0
  -23.3466  -10.9339    0.0000 O   0  0  0  0  0  0  0  0  0  0  0  0
  -21.0692   -9.6834    0.0000 N   0  0  0  0  0  0  0  0  0  0  0  0
  -21.7911   -8.3686    0.0000 C   0  0  0  0  0  0  0  0  0  0  0  0
  -22.9192   -7.3800    0.0000 C   0  0  0  0  0  0  0  0  0  0  0  0
  -22.6271   -5.9087    0.0000 C   0  0  0  0  0  0  0  0  0  0  0  0
  -23.7552   -4.9200    0.0000 C   0  0  0  0  0  0  0  0  0  0  0  0
  -23.4631   -3.4488    0.0000 C   0  0  0  0  0  0  0  0  0  0  0  0
  -24.5911   -2.4601    0.0000 N   0  0  0  0  0  0  0  0  0  0  0  0
  -21.0134   -7.0860    0.0000 C   0  0  0  0  0  0  0  0  0  0  0  0
  -19.5138   -7.1182    0.0000 O   0  0  0  0  0  0  0  0  0  0  0  0
  -21.7353   -5.7711    0.0000 N   0  0  0  0  0  0  0  0  0  0  0  0
  -20.9576   -4.4885    0.0000 C   0  0  0  0  0  0  0  0  0  0  0  0
  -19.7881   -3.5492    0.0000 C   0  0  0  0  0  0  0  0  0  0  0  0
  -18.3899   -4.0924    0.0000 C   0  0  0  0  0  0  0  0  0  0  0  0
  -17.2204   -3.1531    0.0000 C   0  0  0  0  0  0  0  0  0  0  0  0
  -15.8222   -3.6963    0.0000 C   0  0  0  0  0  0  0  0  0  0  0  0
  -14.6527   -2.7570    0.0000 N   0  0  0  0  0  0  0  0  0  0  0  0
  -21.6795   -3.1736    0.0000 C   0  0  0  0  0  0  0  0  0  0  0  0
  -23.1268   -2.7795    0.0000 O   0  0  0  0  0  0  0  0  0  0  0  0
  -20.9018   -1.8910    0.0000 N   0  0  0  0  0  0  0  0  0  0  0  0
  -21.6237   -0.5762    0.0000 C   0  0  0  0  0  0  0  0  0  0  0  0
  -22.7518    0.4125    0.0000 C   0  0  0  0  0  0  0  0  0  0  0  0
  -22.4597    1.8838    0.0000 C   0  0  0  0  0  0  0  0  0  0  0  0
  -23.5878    2.8724    0.0000 C   0  0  0  0  0  0  0  0  0  0  0  0
  -23.2956    4.3437    0.0000 C   0  0  0  0  0  0  0  0  0  0  0  0
  -24.4237    5.3323    0.0000 N   0  0  0  0  0  0  0  0  0  0  0  0
  -20.8460    0.7065    0.0000 C   0  0  0  0  0  0  0  0  0  0  0  0
  -19.3464    0.6743    0.0000 O   0  0  0  0  0  0  0  0  0  0  0  0
  -21.5679    2.0213    0.0000 N   0  0  0  0  0  0  0  0  0  0  0  0
  -20.7902    3.3039    0.0000 C   0  0  0  0  0  0  0  0  0  0  0  0
  -19.6207    4.2432    0.0000 C   0  0  0  0  0  0  0  0  0  0  0  0
  -18.2225    3.7000    0.0000 C   0  0  0  0  0  0  0  0  0  0  0  0
  -17.0530    4.6393    0.0000 C   0  0  0  0  0  0  0  0  0  0  0  0
  -15.6548    4.0961    0.0000 N   0  0  0  0  0  0  0  0  0  0  0  0
  -14.4853    5.0354    0.0000 C   0  0  0  0  0  0  0  0  0  0  0  0
  -13.0871    4.4922    0.0000 N   0  0  0  0  0  0  0  0  0  0  0  0
  -14.7140    6.5179    0.0000 N   0  0  0  0  0  0  0  0  0  0  0  0
  -21.5121    4.6188    0.0000 C   0  0  0  0  0  0  0  0  0  0  0  0
  -22.9594    5.0129    0.0000 O   0  0  0  0  0  0  0  0  0  0  0  0
  -20.7344    5.9014    0.0000 N   0  0  0  0  0  0  0  0  0  0  0  0
  -21.4563    7.2163    0.0000 C   0  0  0  0  0  0  0  0  0  0  0  0
  -22.5844    8.2049    0.0000 C   0  0  0  0  0  0  0  0  0  0  0  0
  -22.2923    9.6762    0.0000 C   0  0  0  0  0  0  0  0  0  0  0  0
  -23.4204   10.6648    0.0000 C   0  0  0  0  0  0  0  0  0  0  0  0
  -23.1282   12.1361    0.0000 C   0  0  0  0  0  0  0  0  0  0  0  0
  -24.2563   13.1247    0.0000 N   0  0  0  0  0  0  0  0  0  0  0  0
  -20.6786    8.4989    0.0000 C   0  0  0  0  0  0  0  0  0  0  0  0
  -19.1790    8.4667    0.0000 O   0  0  0  0  0  0  0  0  0  0  0  0
  -21.4005    9.8137    0.0000 N   0  0  0  0  0  0  0  0  0  0  0  0
  -20.6228   11.0964    0.0000 C   0  0  0  0  0  0  0  0  0  0  0  0
  -19.4533   12.0357    0.0000 C   0  0  0  0  0  0  0  0  0  0  0  0
  -18.0551   11.4925    0.0000 C   0  0  0  0  0  0  0  0  0  0  0  0
  -21.3447   12.4112    0.0000 C   0  0  0  0  0  0  0  0  0  0  0  0
  -20.7292   13.7791    0.0000 O   0  0  0  0  0  0  0  0  0  0  0  0
  -22.7920   12.8054    0.0000 O   0  0  0  0  0  0  0  0  0  0  0  0
   32.3470   -5.4861    0.0000 H   0  0  0  0  0  0  0  0  0  0  0  0
   31.1369   -9.8126    0.0000 H   0  0  0  0  0  0  0  0  0  0  0  0
   33.1460  -12.0406    0.0000 H   0  0  0  0  0  0  0  0  0  0  0  0
   34.6369   -6.2634    0.0000 H   0  0  0  0  0  0  0  0  0  0  0  0
   41.7833   -6.7557    0.0000 H   0  0  0  0  0  0  0  0  0  0  0  0
   41.2439  -11.9238    0.0000 H   0  0  0  0  0  0  0  0  0  0  0  0
   38.2601  -11.6124    0.0000 H   0  0  0  0  0  0  0  0  0  0  0  0
   43.6166  -10.8653    0.0000 H   0  0  0  0  0  0  0  0  0  0  0  0
   34.0541   -8.5613    0.0000 H   0  0  0  0  0  0  0  0  0  0  0  0
   32.8620   -5.6408    0.0000 H   0  0  0  0  0  0  0  0  0  0  0  0
   37.5773   -3.7046    0.0000 H   0  0  0  0  0  0  0  0  0  0  0  0
   35.4743   -2.1790    0.0000 H   0  0  0  0  0  0  0  0  0  0  0  0
   30.0529   -4.7308    0.0000 H   0  0  0  0  0  0  0  0  0  0  0  0
   28.6863   -7.8610    0.0000 H   0  0  0  0  0  0  0  0  0  0  0  0
   26.9584   -7.4155    0.0000 H   0  0  0  0  0  0  0  0  0  0  0  0
   28.3904   -4.5609    0.0000 H   0  0  0  0  0  0  0  0  0  0  0  0
   26.5560   -3.9663    0.0000 H   0  0  0  0  0  0  0  0  0  0  0  0
   25.1099   -3.1287    0.0000 H   0  0  0  0  0  0  0  0  0  0  0  0
   23.1269   -3.3695    0.0000 H   0  0  0  0  0  0  0  0  0  0  0  0
   23.7968   -7.7580    0.0000 H   0  0  0  0  0  0  0  0  0  0  0  0
   22.3254   -6.7484    0.0000 H   0  0  0  0  0  0  0  0  0  0  0  0
   27.2410   -8.2442    0.0000 H   0  0  0  0  0  0  0  0  0  0  0  0
   24.8692   -9.0397    0.0000 H   0  0  0  0  0  0  0  0  0  0  0  0
   22.0545   -2.0879    0.0000 H   0  0  0  0  0  0  0  0  0  0  0  0
   20.2793   -1.7030    0.0000 H   0  0  0  0  0  0  0  0  0  0  0  0
   19.2373   -5.9889    0.0000 H   0  0  0  0  0  0  0  0  0  0  0  0
   18.2081   -4.7199    0.0000 H   0  0  0  0  0  0  0  0  0  0  0  0
   22.5103   -5.4728    0.0000 H   0  0  0  0  0  0  0  0  0  0  0  0
   21.8187   -3.9926    0.0000 H   0  0  0  0  0  0  0  0  0  0  0  0
   19.8601   -9.0591    0.0000 H   0  0  0  0  0  0  0  0  0  0  0  0
   19.5394   -0.0648    0.0000 H   0  0  0  0  0  0  0  0  0  0  0  0
   17.8656    1.0253    0.0000 H   0  0  0  0  0  0  0  0  0  0  0  0
   15.4206   -2.6457    0.0000 H   0  0  0  0  0  0  0  0  0  0  0  0
   15.1556   -0.8811    0.0000 H   0  0  0  0  0  0  0  0  0  0  0  0
   18.6664   -1.7740    0.0000 H   0  0  0  0  0  0  0  0  0  0  0  0
   17.7277   -5.4491    0.0000 H   0  0  0  0  0  0  0  0  0  0  0  0
   16.0999   -5.3079    0.0000 H   0  0  0  0  0  0  0  0  0  0  0  0
   15.6218   -3.5887    0.0000 H   0  0  0  0  0  0  0  0  0  0  0  0
   18.8634   -4.9006    0.0000 H   0  0  0  0  0  0  0  0  0  0  0  0
   20.2011   -3.9625    0.0000 H   0  0  0  0  0  0  0  0  0  0  0  0
   19.0951   -1.9289    0.0000 H   0  0  0  0  0  0  0  0  0  0  0  0
   17.8952    2.5153    0.0000 H   0  0  0  0  0  0  0  0  0  0  0  0
   16.3250    1.8621    0.0000 H   0  0  0  0  0  0  0  0  0  0  0  0
   15.4577    0.7339    0.0000 H   0  0  0  0  0  0  0  0  0  0  0  0
   15.3732    0.1534    0.0000 H   0  0  0  0  0  0  0  0  0  0  0  0
   14.5569   -0.5698    0.0000 H   0  0  0  0  0  0  0  0  0  0  0  0
   14.4416   -0.6917    0.0000 H   0  0  0  0  0  0  0  0  0  0  0  0
   13.4289   -1.6915    0.0000 H   0  0  0  0  0  0  0  0  0  0  0  0
   13.0184   -1.9862    0.0000 H   0  0  0  0  0  0  0  0  0  0  0  0
   11.9304   -2.6201    0.0000 H   0  0  0  0  0  0  0  0  0  0  0  0
   11.4715   -2.8318    0.0000 H   0  0  0  0  0  0  0  0  0  0  0  0
   10.2833   -3.2483    0.0000 H   0  0  0  0  0  0  0  0  0  0  0  0
    9.7926   -3.3693    0.0000 H   0  0  0  0  0  0  0  0  0  0  0  0
    8.3747   -3.4910    0.0000 H   0  0  0  0  0  0  0  0  0  0  0  0
    7.4072   -3.6903    0.0000 H   0  0  0  0  0  0  0  0  0  0  0  0
   18.0336    2.9935    0.0000 H   0  0  0  0  0  0  0  0  0  0  0  0
   18.1567    4.6227    0.0000 H   0  0  0  0  0  0  0  0  0  0  0  0
   16.5371    5.3718    0.0000 H   0  0  0  0  0  0  0  0  0  0  0  0
   17.1683    6.4369    0.0000 H   0  0  0  0  0  0  0  0  0  0  0  0
   16.7676    7.3757    0.0000 H   0  0  0  0  0  0  0  0  0  0  0  0
   16.9269   10.4598    0.0000 H   0  0  0  0  0  0  0  0  0  0  0  0
   15.3253   10.1367    0.0000 H   0  0  0  0  0  0  0  0  0  0  0  0
   19.1219    7.9777    0.0000 H   0  0  0  0  0  0  0  0  0  0  0  0
   17.6461    7.2767    0.0000 H   0  0  0  0  0  0  0  0  0  0  0  0
   19.3921   11.2801    0.0000 H   0  0  0  0  0  0  0  0  0  0  0  0
   17.6677   10.8211    0.0000 H   0  0  0  0  0  0  0  0  0  0  0  0
   20.7831    8.1606    0.0000 H   0  0  0  0  0  0  0  0  0  0  0  0
   23.7704   11.5260    0.0000 H   0  0  0  0  0  0  0  0  0  0  0  0
   21.8274   13.2508    0.0000 H   0  0  0  0  0  0  0  0  0  0  0  0
   19.3622   12.4304    0.0000 H   0  0  0  0  0  0  0  0  0  0  0  0
   15.1757   11.5242    0.0000 H   0  0  0  0  0  0  0  0  0  0  0  0
   14.3915   12.1249    0.0000 H   0  0  0  0  0  0  0  0  0  0  0  0
   13.0841   14.6521    0.0000 H   0  0  0  0  0  0  0  0  0  0  0  0
   11.7298   13.4901    0.0000 H   0  0  0  0  0  0  0  0  0  0  0  0
   14.8225   15.1788    0.0000 H   0  0  0  0  0  0  0  0  0  0  0  0
   11.0233   14.5067    0.0000 H   0  0  0  0  0  0  0  0  0  0  0  0
    9.8694   14.6577    0.0000 H   0  0  0  0  0  0  0  0  0  0  0  0
    7.4032   16.0769    0.0000 H   0  0  0  0  0  0  0  0  0  0  0  0
    6.8921   14.3672    0.0000 H   0  0  0  0  0  0  0  0  0  0  0  0
   11.4484   14.6400    0.0000 H   0  0  0  0  0  0  0  0  0  0  0  0
   13.0550   16.9786    0.0000 H   0  0  0  0  0  0  0  0  0  0  0  0
   11.8415   19.7222    0.0000 H   0  0  0  0  0  0  0  0  0  0  0  0
    8.8587   20.0431    0.0000 H   0  0  0  0  0  0  0  0  0  0  0  0
    7.0894   17.6203    0.0000 H   0  0  0  0  0  0  0  0  0  0  0  0
    5.7481   14.8404    0.0000 H   0  0  0  0  0  0  0  0  0  0  0  0
    4.6958   14.3437    0.0000 H   0  0  0  0  0  0  0  0  0  0  0  0
    1.8538   14.2042    0.0000 H   0  0  0  0  0  0  0  0  0  0  0  0
    2.3482   12.4896    0.0000 H   0  0  0  0  0  0  0  0  0  0  0  0
    6.0337   15.1825    0.0000 H   0  0  0  0  0  0  0  0  0  0  0  0
    6.1209   18.0184    0.0000 H   0  0  0  0  0  0  0  0  0  0  0  0
    3.6167   19.6704    0.0000 H   0  0  0  0  0  0  0  0  0  0  0  0
    0.9340   18.3277    0.0000 H   0  0  0  0  0  0  0  0  0  0  0  0
    0.7554   15.3330    0.0000 H   0  0  0  0  0  0  0  0  0  0  0  0
    0.9962   12.1441    0.0000 H   0  0  0  0  0  0  0  0  0  0  0  0
    0.5132   11.2824    0.0000 H   0  0  0  0  0  0  0  0  0  0  0  0
   -1.0711   11.2564    0.0000 H   0  0  0  0  0  0  0  0  0  0  0  0
   -1.8022    9.6286    0.0000 H   0  0  0  0  0  0  0  0  0  0  0  0
   -0.4593    8.4535    0.0000 H   0  0  0  0  0  0  0  0  0  0  0  0
   -1.3650    7.6095    0.0000 H   0  0  0  0  0  0  0  0  0  0  0  0
   -1.2450    6.5957    0.0000 H   0  0  0  0  0  0  0  0  0  0  0  0
   -2.2668    3.6815    0.0000 H   0  0  0  0  0  0  0  0  0  0  0  0
   -0.6390    3.5402    0.0000 H   0  0  0  0  0  0  0  0  0  0  0  0
   -2.0601    6.9382    0.0000 H   0  0  0  0  0  0  0  0  0  0  0  0
   -5.3414    5.3081    0.0000 H   0  0  0  0  0  0  0  0  0  0  0  0
   -4.8632    3.5889    0.0000 H   0  0  0  0  0  0  0  0  0  0  0  0
   -3.0793    3.5435    0.0000 H   0  0  0  0  0  0  0  0  0  0  0  0
   -5.1678    6.5496    0.0000 H   0  0  0  0  0  0  0  0  0  0  0  0
   -4.2365    8.0718    0.0000 H   0  0  0  0  0  0  0  0  0  0  0  0
   -2.4021    7.4772    0.0000 H   0  0  0  0  0  0  0  0  0  0  0  0
   -0.9446    2.3405    0.0000 H   0  0  0  0  0  0  0  0  0  0  0  0
    1.7573   -1.2296    0.0000 H   0  0  0  0  0  0  0  0  0  0  0  0
    0.7807   -0.4349    0.0000 H   0  0  0  0  0  0  0  0  0  0  0  0
    2.9947   -2.2294    0.0000 H   0  0  0  0  0  0  0  0  0  0  0  0
    2.0671   -1.6559    0.0000 H   0  0  0  0  0  0  0  0  0  0  0  0
    4.7635   -2.9862    0.0000 H   0  0  0  0  0  0  0  0  0  0  0  0
    3.4333   -2.4804    0.0000 H   0  0  0  0  0  0  0  0  0  0  0  0
    5.6392   -3.4432    0.0000 H   0  0  0  0  0  0  0  0  0  0  0  0
   -1.3237    0.2702    0.0000 H   0  0  0  0  0  0  0  0  0  0  0  0
   -1.7226    1.8546    0.0000 H   0  0  0  0  0  0  0  0  0  0  0  0
   -0.4375    2.8635    0.0000 H   0  0  0  0  0  0  0  0  0  0  0  0
   -1.9369    1.0363    0.0000 H   0  0  0  0  0  0  0  0  0  0  0  0
   -0.1298   -1.8334    0.0000 H   0  0  0  0  0  0  0  0  0  0  0  0
   -1.3314   -4.3835    0.0000 H   0  0  0  0  0  0  0  0  0  0  0  0
   -0.2190   -2.8083    0.0000 H   0  0  0  0  0  0  0  0  0  0  0  0
   -5.7019   -3.0278    0.0000 H   0  0  0  0  0  0  0  0  0  0  0  0
   -3.1794   -4.3235    0.0000 H   0  0  0  0  0  0  0  0  0  0  0  0
   -5.0693   -1.5519    0.0000 H   0  0  0  0  0  0  0  0  0  0  0  0
   -7.8787   -1.7863    0.0000 H   0  0  0  0  0  0  0  0  0  0  0  0
   -6.0140   -1.2947    0.0000 H   0  0  0  0  0  0  0  0  0  0  0  0
   -8.3577   -5.0649    0.0000 H   0  0  0  0  0  0  0  0  0  0  0  0
   -7.0429   -5.0473    0.0000 H   0  0  0  0  0  0  0  0  0  0  0  0
  -11.6779   -3.9762    0.0000 H   0  0  0  0  0  0  0  0  0  0  0  0
  -10.4509   -5.8956    0.0000 H   0  0  0  0  0  0  0  0  0  0  0  0
   -8.4684   -3.5387    0.0000 H   0  0  0  0  0  0  0  0  0  0  0  0
   -6.5324   -6.2782    0.0000 H   0  0  0  0  0  0  0  0  0  0  0  0
   -6.6480   -7.0719    0.0000 H   0  0  0  0  0  0  0  0  0  0  0  0
   -9.7962   -9.4723    0.0000 H   0  0  0  0  0  0  0  0  0  0  0  0
  -10.9732   -8.1311    0.0000 H   0  0  0  0  0  0  0  0  0  0  0  0
  -10.6237   -7.0377    0.0000 H   0  0  0  0  0  0  0  0  0  0  0  0
   -7.8708  -10.3221    0.0000 H   0  0  0  0  0  0  0  0  0  0  0  0
   -9.1542   -9.3111    0.0000 H   0  0  0  0  0  0  0  0  0  0  0  0
   -5.9043  -10.6728    0.0000 H   0  0  0  0  0  0  0  0  0  0  0  0
   -4.7919   -9.0977    0.0000 H   0  0  0  0  0  0  0  0  0  0  0  0
   -5.9689   -7.7565    0.0000 H   0  0  0  0  0  0  0  0  0  0  0  0
   -9.5821   -8.7683    0.0000 H   0  0  0  0  0  0  0  0  0  0  0  0
  -11.4719   -5.9967    0.0000 H   0  0  0  0  0  0  0  0  0  0  0  0
  -14.2813   -6.2311    0.0000 H   0  0  0  0  0  0  0  0  0  0  0  0
  -12.4166   -5.7395    0.0000 H   0  0  0  0  0  0  0  0  0  0  0  0
  -14.5389  -10.7997    0.0000 H   0  0  0  0  0  0  0  0  0  0  0  0
  -14.8710   -7.9835    0.0000 H   0  0  0  0  0  0  0  0  0  0  0  0
  -12.9350  -10.7230    0.0000 H   0  0  0  0  0  0  0  0  0  0  0  0
  -14.1366  -13.2732    0.0000 H   0  0  0  0  0  0  0  0  0  0  0  0
  -13.0242  -11.6980    0.0000 H   0  0  0  0  0  0  0  0  0  0  0  0
  -17.3758  -12.5759    0.0000 H   0  0  0  0  0  0  0  0  0  0  0  0
  -16.8997  -11.3502    0.0000 H   0  0  0  0  0  0  0  0  0  0  0  0
  -17.5165  -16.0671    0.0000 H   0  0  0  0  0  0  0  0  0  0  0  0
  -18.8145  -14.0561    0.0000 H   0  0  0  0  0  0  0  0  0  0  0  0
  -15.9847  -13.2132    0.0000 H   0  0  0  0  0  0  0  0  0  0  0  0
  -17.6935  -10.4694    0.0000 H   0  0  0  0  0  0  0  0  0  0  0  0
  -19.9527  -12.9575    0.0000 H   0  0  0  0  0  0  0  0  0  0  0  0
  -21.0539   -9.1820    0.0000 H   0  0  0  0  0  0  0  0  0  0  0  0
  -19.7043   -8.5971    0.0000 H   0  0  0  0  0  0  0  0  0  0  0  0
  -18.3725   -9.7848    0.0000 H   0  0  0  0  0  0  0  0  0  0  0  0
  -22.4270  -11.9462    0.0000 H   0  0  0  0  0  0  0  0  0  0  0  0
  -20.9334  -13.1658    0.0000 H   0  0  0  0  0  0  0  0  0  0  0  0
  -23.3260  -10.3347    0.0000 H   0  0  0  0  0  0  0  0  0  0  0  0
  -22.6031   -9.3215    0.0000 H   0  0  0  0  0  0  0  0  0  0  0  0
  -20.6800   -9.4636    0.0000 H   0  0  0  0  0  0  0  0  0  0  0  0
  -19.5663  -15.3390    0.0000 H   0  0  0  0  0  0  0  0  0  0  0  0
  -21.4173  -16.1159    0.0000 H   0  0  0  0  0  0  0  0  0  0  0  0
  -22.5722  -15.8443    0.0000 H   0  0  0  0  0  0  0  0  0  0  0  0
  -23.8831  -14.3240    0.0000 H   0  0  0  0  0  0  0  0  0  0  0  0
  -23.9817  -13.1417    0.0000 H   0  0  0  0  0  0  0  0  0  0  0  0
  -23.1127  -11.4887    0.0000 H   0  0  0  0  0  0  0  0  0  0  0  0
  -20.1364  -11.1528    0.0000 H   0  0  0  0  0  0  0  0  0  0  0  0
  -19.6063   -9.3518    0.0000 H   0  0  0  0  0  0  0  0  0  0  0  0
  -23.0664   -9.1583    0.0000 H   0  0  0  0  0  0  0  0  0  0  0  0
  -24.3732   -7.0113    0.0000 H   0  0  0  0  0  0  0  0  0  0  0  0
  -23.6970   -8.6626    0.0000 H   0  0  0  0  0  0  0  0  0  0  0  0
  -21.6988   -4.7304    0.0000 H   0  0  0  0  0  0  0  0  0  0  0  0
  -21.1376   -5.7317    0.0000 H   0  0  0  0  0  0  0  0  0  0  0  0
  -25.1534   -4.3769    0.0000 H   0  0  0  0  0  0  0  0  0  0  0  0
  -24.6835   -6.0983    0.0000 H   0  0  0  0  0  0  0  0  0  0  0  0
  -22.8475   -2.0809    0.0000 H   0  0  0  0  0  0  0  0  0  0  0  0
  -22.0091   -3.8175    0.0000 H   0  0  0  0  0  0  0  0  0  0  0  0
  -24.1218   -1.0354    0.0000 H   0  0  0  0  0  0  0  0  0  0  0  0
  -26.0114   -2.9428    0.0000 H   0  0  0  0  0  0  0  0  0  0  0  0
  -23.1826   -5.3770    0.0000 H   0  0  0  0  0  0  0  0  0  0  0  0
  -19.9584   -5.6073    0.0000 H   0  0  0  0  0  0  0  0  0  0  0  0
  -19.0104   -2.2666    0.0000 H   0  0  0  0  0  0  0  0  0  0  0  0
  -20.6435   -2.3170    0.0000 H   0  0  0  0  0  0  0  0  0  0  0  0
  -17.3907   -5.2112    0.0000 H   0  0  0  0  0  0  0  0  0  0  0  0
  -19.0055   -5.4603    0.0000 H   0  0  0  0  0  0  0  0  0  0  0  0
  -16.4427   -1.8705    0.0000 H   0  0  0  0  0  0  0  0  0  0  0  0
  -18.2196   -2.0343    0.0000 H   0  0  0  0  0  0  0  0  0  0  0  0
  -14.6941   -4.6849    0.0000 H   0  0  0  0  0  0  0  0  0  0  0  0
  -16.4378   -5.0642    0.0000 H   0  0  0  0  0  0  0  0  0  0  0  0
  -13.2545   -3.3002    0.0000 H   0  0  0  0  0  0  0  0  0  0  0  0
  -14.8814   -1.2746    0.0000 H   0  0  0  0  0  0  0  0  0  0  0  0
  -19.4094   -1.7402    0.0000 H   0  0  0  0  0  0  0  0  0  0  0  0
  -22.8990   -1.3659    0.0000 H   0  0  0  0  0  0  0  0  0  0  0  0
  -24.2058    0.7812    0.0000 H   0  0  0  0  0  0  0  0  0  0  0  0
  -23.3674   -0.9554    0.0000 H   0  0  0  0  0  0  0  0  0  0  0  0
  -21.5314    3.0620    0.0000 H   0  0  0  0  0  0  0  0  0  0  0  0
  -20.9702    2.0607    0.0000 H   0  0  0  0  0  0  0  0  0  0  0  0
  -24.9860    3.4156    0.0000 H   0  0  0  0  0  0  0  0  0  0  0  0
  -24.5161    1.6941    0.0000 H   0  0  0  0  0  0  0  0  0  0  0  0
  -22.6801    5.7115    0.0000 H   0  0  0  0  0  0  0  0  0  0  0  0
  -21.8417    3.9750    0.0000 H   0  0  0  0  0  0  0  0  0  0  0  0
  -23.9544    6.7570    0.0000 H   0  0  0  0  0  0  0  0  0  0  0  0
  -25.8440    4.8497    0.0000 H   0  0  0  0  0  0  0  0  0  0  0  0
  -23.0152    2.4155    0.0000 H   0  0  0  0  0  0  0  0  0  0  0  0
  -19.7910    2.1852    0.0000 H   0  0  0  0  0  0  0  0  0  0  0  0
  -18.8430    5.5259    0.0000 H   0  0  0  0  0  0  0  0  0  0  0  0
  -20.4760    5.4755    0.0000 H   0  0  0  0  0  0  0  0  0  0  0  0
  -17.0944    2.7114    0.0000 H   0  0  0  0  0  0  0  0  0  0  0  0
  -18.8381    2.3322    0.0000 H   0  0  0  0  0  0  0  0  0  0  0  0
  -16.2753    5.9219    0.0000 H   0  0  0  0  0  0  0  0  0  0  0  0
  -18.0522    5.7581    0.0000 H   0  0  0  0  0  0  0  0  0  0  0  0
  -15.4261    2.6137    0.0000 H   0  0  0  0  0  0  0  0  0  0  0  0
  -11.9176    5.4315    0.0000 H   0  0  0  0  0  0  0  0  0  0  0  0
  -13.5445    7.4572    0.0000 H   0  0  0  0  0  0  0  0  0  0  0  0
  -16.1122    7.0611    0.0000 H   0  0  0  0  0  0  0  0  0  0  0  0
  -19.2420    6.0522    0.0000 H   0  0  0  0  0  0  0  0  0  0  0  0
  -22.7316    6.4266    0.0000 H   0  0  0  0  0  0  0  0  0  0  0  0
  -24.0384    8.5736    0.0000 H   0  0  0  0  0  0  0  0  0  0  0  0
  -23.2000    6.8370    0.0000 H   0  0  0  0  0  0  0  0  0  0  0  0
  -21.3640   10.8544    0.0000 H   0  0  0  0  0  0  0  0  0  0  0  0
  -20.8028    9.8532    0.0000 H   0  0  0  0  0  0  0  0  0  0  0  0
  -24.8186   11.2080    0.0000 H   0  0  0  0  0  0  0  0  0  0  0  0
  -24.3487    9.4866    0.0000 H   0  0  0  0  0  0  0  0  0  0  0  0
  -22.3505   13.4187    0.0000 H   0  0  0  0  0  0  0  0  0  0  0  0
  -21.6743   11.7674    0.0000 H   0  0  0  0  0  0  0  0  0  0  0  0
  -23.9642   14.5960    0.0000 H   0  0  0  0  0  0  0  0  0  0  0  0
  -25.6766   12.6421    0.0000 H   0  0  0  0  0  0  0  0  0  0  0  0
  -22.8478   10.2079    0.0000 H   0  0  0  0  0  0  0  0  0  0  0  0
  -19.6236    9.9776    0.0000 H   0  0  0  0  0  0  0  0  0  0  0  0
  -18.6756   13.3183    0.0000 H   0  0  0  0  0  0  0  0  0  0  0  0
  -20.4525   13.1544    0.0000 H   0  0  0  0  0  0  0  0  0  0  0  0
  -16.8856   12.4318    0.0000 H   0  0  0  0  0  0  0  0  0  0  0  0
  -16.9270   10.5038    0.0000 H   0  0  0  0  0  0  0  0  0  0  0  0
  -18.6707   10.1246    0.0000 H   0  0  0  0  0  0  0  0  0  0  0  0
  -23.5663   13.7583    0.0000 H   0  0  0  0  0  0  0  0  0  0  0  0
  1  2  1  0
  2  3  1  0
  3  4  2  0
  4  5  1  0
  5  6  2  0
  6  7  1  0
  7  8  2  0
  7  9  1  0
  9 10  1  0
 10 11  1  0
 11 12  2  0
  9 13  1  0
 13 14  1  0
 14 15  2  0
 15 16  1  0
 16 17  2  0
 17 18  1  0
 16 19  1  0
 14 20  1  0
 20 21  1  0
 21 22  2  0
 22 23  1  0
 23 24  2  0
 24 25  1  0
 25 26  2  0
 25 27  1  0
  1 28  2  0
  1 29  1  0
 29 30  1  0
 30 31  1  0
 31 32  1  0
 32 33  2  0
 32 34  1  0
 34 35  1  0
 35 36  1  0
 36 37  1  0
 37 38  1  0
 37 39  2  0
 35 40  1  0
 40 41  2  0
 40 42  1  0
 42 43  1  0
 43 44  1  0
 44 45  1  0
 45 46  1  0
 46 47  2  0
 46 48  1  0
 43 49  1  0
 49 50  2  0
 49 51  1  0
 51 52  1  0
 52 53  1  0
 53 54  1  0
 54 55  1  0
 54 56  1  0
 52 57  1  0
 57 58  2  0
 57 59  1  0
 60 59  1  6
 60 61  1  0
 61 62  1  0
 62 63  1  0
 63 64  1  0
 64 65  1  0
 65 66  1  0
 66 67  1  0
 60 68  1  0
 60 69  1  0
 69 70  2  0
 69 71  1  0
 71 72  1  0
 72 73  1  0
 73 74  1  0
 74 75  1  0
 75 76  1  0
 76 77  1  0
 77 78  2  3
 77 79  1  0
 72 80  1  0
 80 81  2  0
 80 82  1  0
 82 83  1  0
 83 84  1  0
 84 85  1  0
 83 86  1  0
 86 87  2  0
 86 88  1  0
 88 89  1  0
 89 90  1  0
 90 91  1  0
 91 92  2  0
 92 93  1  0
 93 94  2  0
 94 95  1  0
 95 96  2  0
 89 97  1  0
 97 98  2  0
 97 99  1  0
 99100  1  0
100101  1  0
101102  1  0
102103  2  0
103104  1  0
104105  2  0
105106  1  0
106107  2  0
100108  1  0
108109  2  0
108110  1  0
110111  1  0
111112  1  0
111113  1  0
113114  2  0
113115  1  0
115116  1  0
116117  1  0
117118  1  0
118119  1  0
118120  1  0
116121  1  0
121122  2  0
121123  1  0
123124  1  0
124125  1  0
125126  1  0
126127  1  0
127128  1  0
124129  1  0
124130  1  1
130131  2  0
130132  1  0
132133  1  0
133134  1  0
134135  1  0
135136  2  0
135137  1  0
133138  1  0
138139  2  0
138140  1  0
140141  1  0
141142  1  0
142143  1  0
143144  1  0
144145  1  0
144146  2  0
141147  1  0
147148  2  0
147149  1  0
149150  1  0
150151  1  0
151152  1  0
151153  1  0
153154  1  0
150155  1  0
155156  2  0
155157  1  0
157158  1  0
158159  1  0
159160  1  0
160161  2  0
160162  1  0
158163  1  0
163164  2  0
163165  1  0
165166  1  0
166167  1  0
167168  1  0
168169  1  0
169170  1  0
169171  2  0
166172  1  0
172173  2  0
172174  1  0
174175  1  0
175176  1  0
176177  1  0
176178  1  0
178179  1  0
175180  1  0
180181  2  0
180182  1  0
182183  1  0
183184  1  0
184185  1  0
185186  1  0
186187  1  0
187188  2  0
187189  1  0
189190  1  0
190191  1  0
191192  1  0
192193  1  0
193194  1  0
194195  1  0
190196  1  0
196197  2  0
196198  1  0
198199  1  0
199200  1  0
200201  1  0
201202  1  0
202203  1  0
203204  1  0
199205  1  0
205206  2  0
205207  1  0
207208  1  0
208209  1  0
209210  1  0
210211  1  0
211212  1  0
212213  1  0
208214  1  0
214215  2  0
214216  1  0
216217  1  0
217218  1  0
218219  1  0
219220  1  0
220221  1  0
221222  1  0
222223  2  3
222224  1  0
217225  1  0
225226  2  0
225227  1  0
227228  1  0
228229  1  0
229230  1  0
230231  1  0
231232  1  0
232233  1  0
228234  1  0
234235  2  0
234236  1  0
236237  1  0
237238  1  0
238239  1  0
237240  1  0
240241  2  0
240242  1  0
  8  3  1  0
 96 91  1  0
107102  1  0
186182  1  0
 11  6  1  0
 67128  2  0
 18 13  2  0
 22  9  1  0
 26 21  1  0
  2243  1  0
  4244  1  0
  5245  1  0
  8246  1  0
 15247  1  0
 17248  1  0
 18249  1  0
 19250  1  0
 23251  1  0
 24252  1  0
 26253  1  0
 27254  1  0
 29255  1  0
 30256  1  0
 30257  1  0
 31258  1  0
 31259  1  0
 34260  1  0
 35261  1  1
 36262  1  0
 36263  1  0
 38264  1  0
 38265  1  0
 42266  1  0
 43267  1  1
 44268  1  0
 44269  1  0
 45270  1  0
 45271  1  0
 48272  1  0
 51273  1  0
 52274  1  1
 53275  1  0
 53276  1  0
 54277  1  0
 55278  1  0
 55279  1  0
 55280  1  0
 56281  1  0
 56282  1  0
 56283  1  0
 59284  1  0
 61285  1  0
 61286  1  0
 62287  1  0
 62288  1  0
 63289  1  0
 63290  1  0
 64291  1  0
 64292  1  0
 65293  1  0
 65294  1  0
 66295  1  0
 66296  1  0
 67297  1  0
 68298  1  0
 68299  1  0
 68300  1  0
 71301  1  0
 72302  1  6
 73303  1  0
 73304  1  0
 74305  1  0
 74306  1  0
 75307  1  0
 75308  1  0
 76309  1  0
 78310  1  0
 79311  1  0
 79312  1  0
 82313  1  0
 83314  1  6
 84315  1  0
 84316  1  0
 85317  1  0
 88318  1  0
 89319  1  6
 90320  1  0
 90321  1  0
 92322  1  0
 93323  1  0
 94324  1  0
 95325  1  0
 96326  1  0
 99327  1  0
100328  1  6
101329  1  0
101330  1  0
103331  1  0
104332  1  0
105333  1  0
106334  1  0
107335  1  0
110336  1  0
111337  1  6
112338  1  0
112339  1  0
112340  1  0
115341  1  0
116342  1  6
117343  1  0
117344  1  0
118345  1  0
119346  1  0
119347  1  0
119348  1  0
120349  1  0
120350  1  0
120351  1  0
123352  1  0
125353  1  0
125354  1  0
126355  1  0
126356  1  0
127357  1  0
127358  1  0
128359  1  0
129360  1  0
129361  1  0
129362  1  0
132363  1  0
133364  1  1
134365  1  0
134366  1  0
137367  1  0
140368  1  0
141369  1  6
142370  1  0
142371  1  0
143372  1  0
143373  1  0
145374  1  0
145375  1  0
149376  1  0
150377  1  1
151378  1  1
152379  1  0
152380  1  0
152381  1  0
153382  1  0
153383  1  0
154384  1  0
154385  1  0
154386  1  0
157387  1  0
158388  1  6
159389  1  0
159390  1  0
162391  1  0
165392  1  0
166393  1  1
167394  1  0
167395  1  0
168396  1  0
168397  1  0
170398  1  0
170399  1  0
174400  1  0
175401  1  6
176402  1  1
177403  1  0
177404  1  0
177405  1  0
178406  1  0
178407  1  0
179408  1  0
179409  1  0
179410  1  0
183411  1  0
183412  1  0
184413  1  0
184414  1  0
185415  1  0
185416  1  0
186417  1  0
189418  1  0
190419  1  1
191420  1  0
191421  1  0
192422  1  0
192423  1  0
193424  1  0
193425  1  0
194426  1  0
194427  1  0
195428  1  0
195429  1  0
198430  1  0
199431  1  6
200432  1  0
200433  1  0
201434  1  0
201435  1  0
202436  1  0
202437  1  0
203438  1  0
203439  1  0
204440  1  0
204441  1  0
207442  1  0
208443  1  1
209444  1  0
209445  1  0
210446  1  0
210447  1  0
211448  1  0
211449  1  0
212450  1  0
212451  1  0
213452  1  0
213453  1  0
216454  1  0
217455  1  6
218456  1  0
218457  1  0
219458  1  0
219459  1  0
220460  1  0
220461  1  0
221462  1  0
223463  1  0
224464  1  0
224465  1  0
227466  1  0
228467  1  1
229468  1  0
229469  1  0
230470  1  0
230471  1  0
231472  1  0
231473  1  0
232474  1  0
232475  1  0
233476  1  0
233477  1  0
236478  1  0
237479  1  6
238480  1  0
238481  1  0
239482  1  0
239483  1  0
239484  1  0
242485  1  0
M  END
