
     RDKit          2D

421422  0  0  0  0  0  0  0  0999 V2000
    0.1055   -2.8279    0.0000 N   0  0  0  0  0  0  0  0  0  0  0  0
    0.2177   -4.3237    0.0000 C   0  0  0  0  0  0  0  0  0  0  0  0
   -1.0216   -5.1688    0.0000 C   0  0  0  0  0  0  0  0  0  0  0  0
   -0.9094   -6.6646    0.0000 C   0  0  0  0  0  0  0  0  0  0  0  0
    0.4421   -7.3153    0.0000 O   0  0  0  0  0  0  0  0  0  0  0  0
   -2.1487   -7.5097    0.0000 N   0  0  0  0  0  0  0  0  0  0  0  0
   -2.0365   -9.0055    0.0000 C   0  0  0  0  0  0  0  0  0  0  0  0
   -3.5291   -8.8562    0.0000 C   0  0  0  0  0  0  0  0  0  0  0  0
   -4.3082   -7.5744    0.0000 O   0  0  0  0  0  0  0  0  0  0  0  0
   -1.4195  -10.3727    0.0000 C   0  0  0  0  0  0  0  0  0  0  0  0
   -2.3352  -11.3646    0.0000 O   0  0  0  0  0  0  0  0  0  0  0  0
    0.0730  -10.5219    0.0000 N   0  0  0  0  0  0  0  0  0  0  0  0
    0.6901  -11.8892    0.0000 C   0  0  0  0  0  0  0  0  0  0  0  0
   -0.7635  -12.2594    0.0000 C   0  0  0  0  0  0  0  0  0  0  0  0
   -1.1697  -13.7033    0.0000 C   0  0  0  0  0  0  0  0  0  0  0  0
   -2.6233  -14.0736    0.0000 C   0  0  0  0  0  0  0  0  0  0  0  0
   -3.0295  -15.5175    0.0000 O   0  0  0  0  0  0  0  0  0  0  0  0
   -3.6707  -12.9998    0.0000 O   0  0  0  0  0  0  0  0  0  0  0  0
    1.7375  -12.9629    0.0000 C   0  0  0  0  0  0  0  0  0  0  0  0
    1.2162  -14.2082    0.0000 O   0  0  0  0  0  0  0  0  0  0  0  0
    3.1911  -12.5927    0.0000 N   0  0  0  0  0  0  0  0  0  0  0  0
    4.2385  -13.6664    0.0000 C   0  0  0  0  0  0  0  0  0  0  0  0
    2.9992  -14.5114    0.0000 C   0  0  0  0  0  0  0  0  0  0  0  0
    3.1114  -16.0072    0.0000 C   0  0  0  0  0  0  0  0  0  0  0  0
    1.8721  -16.8523    0.0000 C   0  0  0  0  0  0  0  0  0  0  0  0
    1.9843  -18.3481    0.0000 O   0  0  0  0  0  0  0  0  0  0  0  0
    0.5206  -16.2016    0.0000 O   0  0  0  0  0  0  0  0  0  0  0  0
    5.5900  -14.3171    0.0000 C   0  0  0  0  0  0  0  0  0  0  0  0
    5.5325  -15.5308    0.0000 O   0  0  0  0  0  0  0  0  0  0  0  0
    6.8293  -13.4721    0.0000 N   0  0  0  0  0  0  0  0  0  0  0  0
    8.1808  -14.1228    0.0000 C   0  0  0  0  0  0  0  0  0  0  0  0
    7.3053  -15.3408    0.0000 C   0  0  0  0  0  0  0  0  0  0  0  0
    7.9223  -16.7080    0.0000 C   0  0  0  0  0  0  0  0  0  0  0  0
    7.0467  -17.9259    0.0000 C   0  0  0  0  0  0  0  0  0  0  0  0
    8.9697  -17.7817    0.0000 C   0  0  0  0  0  0  0  0  0  0  0  0
    9.6733  -14.2721    0.0000 C   0  0  0  0  0  0  0  0  0  0  0  0
   10.0745  -15.5611    0.0000 O   0  0  0  0  0  0  0  0  0  0  0  0
   10.5489  -13.0541    0.0000 N   0  0  0  0  0  0  0  0  0  0  0  0
   12.0414  -13.2033    0.0000 C   0  0  0  0  0  0  0  0  0  0  0  0
   11.6353  -14.6473    0.0000 C   0  0  0  0  0  0  0  0  0  0  0  0
   12.6827  -15.7210    0.0000 C   0  0  0  0  0  0  0  0  0  0  0  0
   13.4950  -12.8331    0.0000 C   0  0  0  0  0  0  0  0  0  0  0  0
   14.4038  -14.0265    0.0000 O   0  0  0  0  0  0  0  0  0  0  0  0
   13.9012  -11.3892    0.0000 N   0  0  0  0  0  0  0  0  0  0  0  0
   15.3548  -11.0189    0.0000 C   0  0  0  0  0  0  0  0  0  0  0  0
   15.4670  -12.5147    0.0000 C   0  0  0  0  0  0  0  0  0  0  0  0
   16.5941  -10.1739    0.0000 C   0  0  0  0  0  0  0  0  0  0  0  0
   17.8562  -10.9845    0.0000 O   0  0  0  0  0  0  0  0  0  0  0  0
   16.4819   -8.6781    0.0000 N   0  0  0  0  0  0  0  0  0  0  0  0
   17.7212   -7.8330    0.0000 C   0  0  0  0  0  0  0  0  0  0  0  0
   18.3382   -9.2002    0.0000 C   0  0  0  0  0  0  0  0  0  0  0  0
   19.8308   -9.3495    0.0000 C   0  0  0  0  0  0  0  0  0  0  0  0
   20.4478  -10.7167    0.0000 C   0  0  0  0  0  0  0  0  0  0  0  0
   21.9404  -10.8659    0.0000 O   0  0  0  0  0  0  0  0  0  0  0  0
   19.5723  -11.9347    0.0000 O   0  0  0  0  0  0  0  0  0  0  0  0
   18.5967   -6.6150    0.0000 C   0  0  0  0  0  0  0  0  0  0  0  0
   20.0600   -6.9451    0.0000 O   0  0  0  0  0  0  0  0  0  0  0  0
   17.9797   -5.2478    0.0000 N   0  0  0  0  0  0  0  0  0  0  0  0
   18.8553   -4.0299    0.0000 C   0  0  0  0  0  0  0  0  0  0  0  0
   19.9027   -5.1036    0.0000 C   0  0  0  0  0  0  0  0  0  0  0  0
   19.2614   -2.5859    0.0000 C   0  0  0  0  0  0  0  0  0  0  0  0
   20.7493   -2.3956    0.0000 O   0  0  0  0  0  0  0  0  0  0  0  0
   18.2140   -1.5122    0.0000 N   0  0  0  0  0  0  0  0  0  0  0  0
   18.6202   -0.0682    0.0000 C   0  0  0  0  0  0  0  0  0  0  0  0
   19.9717   -0.7189    0.0000 C   0  0  0  0  0  0  0  0  0  0  0  0
   21.2110    0.1261    0.0000 C   0  0  0  0  0  0  0  0  0  0  0  0
   21.2557    1.6255    0.0000 C   0  0  0  0  0  0  0  0  0  0  0  0
   22.6955    2.0462    0.0000 N   0  0  0  0  0  0  0  0  0  0  0  0
   23.5406    0.8069    0.0000 C   0  0  0  0  0  0  0  0  0  0  0  0
   22.6231   -0.3798    0.0000 N   0  0  0  0  0  0  0  0  0  0  0  0
   18.5080    1.4276    0.0000 C   0  0  0  0  0  0  0  0  0  0  0  0
   19.7473    2.2727    0.0000 O   0  0  0  0  0  0  0  0  0  0  0  0
   17.1565    2.0783    0.0000 N   0  0  0  0  0  0  0  0  0  0  0  0
   17.0443    3.5741    0.0000 C   0  0  0  0  0  0  0  0  0  0  0  0
   18.5368    3.4249    0.0000 C   0  0  0  0  0  0  0  0  0  0  0  0
   19.4124    4.6428    0.0000 C   0  0  0  0  0  0  0  0  0  0  0  0
   20.9049    4.4936    0.0000 N   0  0  0  0  0  0  0  0  0  0  0  0
   18.7954    6.0101    0.0000 O   0  0  0  0  0  0  0  0  0  0  0  0
   16.4273    4.9414    0.0000 C   0  0  0  0  0  0  0  0  0  0  0  0
   17.4447    6.0435    0.0000 O   0  0  0  0  0  0  0  0  0  0  0  0
   14.9347    5.0906    0.0000 N   0  0  0  0  0  0  0  0  0  0  0  0
   14.3177    6.4578    0.0000 C   0  0  0  0  0  0  0  0  0  0  0  0
   15.7713    6.8281    0.0000 C   0  0  0  0  0  0  0  0  0  0  0  0
   16.1774    8.2720    0.0000 C   0  0  0  0  0  0  0  0  0  0  0  0
   17.6310    8.6423    0.0000 C   0  0  0  0  0  0  0  0  0  0  0  0
   16.0653    9.7678    0.0000 C   0  0  0  0  0  0  0  0  0  0  0  0
   13.2703    7.5316    0.0000 C   0  0  0  0  0  0  0  0  0  0  0  0
   13.8494    8.9152    0.0000 O   0  0  0  0  0  0  0  0  0  0  0  0
   11.8167    7.1613    0.0000 N   0  0  0  0  0  0  0  0  0  0  0  0
   10.7692    8.2351    0.0000 C   0  0  0  0  0  0  0  0  0  0  0  0
   12.0085    9.0801    0.0000 C   0  0  0  0  0  0  0  0  0  0  0  0
   11.8964   10.5759    0.0000 S   0  0  0  0  0  0  0  0  0  0  0  0
    9.4178    8.8858    0.0000 C   0  0  0  0  0  0  0  0  0  0  0  0
    9.4887   10.3841    0.0000 O   0  0  0  0  0  0  0  0  0  0  0  0
    8.1784    8.0407    0.0000 N   0  0  0  0  0  0  0  0  0  0  0  0
    6.8270    8.6915    0.0000 C   0  0  0  0  0  0  0  0  0  0  0  0
    6.8440    7.1916    0.0000 C   0  0  0  0  0  0  0  0  0  0  0  0
    6.5770    5.7155    0.0000 C   0  0  0  0  0  0  0  0  0  0  0  0
    6.0354    4.3167    0.0000 C   0  0  0  0  0  0  0  0  0  0  0  0
    5.2389    3.0457    0.0000 C   0  0  0  0  0  0  0  0  0  0  0  0
    4.2162    1.9484    0.0000 C   0  0  0  0  0  0  0  0  0  0  0  0
    3.0043    1.0644    0.0000 C   0  0  0  0  0  0  0  0  0  0  0  0
    1.6471    0.4258    0.0000 C   0  0  0  0  0  0  0  0  0  0  0  0
    8.0102    9.6134    0.0000 C   0  0  0  0  0  0  0  0  0  0  0  0
    6.5263   10.1610    0.0000 C   0  0  0  0  0  0  0  0  0  0  0  0
    7.8964   10.7716    0.0000 O   0  0  0  0  0  0  0  0  0  0  0  0
    5.9530   11.5471    0.0000 N   0  0  0  0  0  0  0  0  0  0  0  0
    5.1277   12.7997    0.0000 C   0  0  0  0  0  0  0  0  0  0  0  0
    5.6246   14.2150    0.0000 C   0  0  0  0  0  0  0  0  0  0  0  0
    7.0988   14.4923    0.0000 C   0  0  0  0  0  0  0  0  0  0  0  0
    7.5957   15.9076    0.0000 C   0  0  0  0  0  0  0  0  0  0  0  0
    8.5788   14.2487    0.0000 C   0  0  0  0  0  0  0  0  0  0  0  0
    4.0803   13.8734    0.0000 C   0  0  0  0  0  0  0  0  0  0  0  0
    4.9028   15.1278    0.0000 O   0  0  0  0  0  0  0  0  0  0  0  0
    2.8486   14.7295    0.0000 N   0  0  0  0  0  0  0  0  0  0  0  0
    1.4771   15.3371    0.0000 C   0  0  0  0  0  0  0  0  0  0  0  0
    1.1300   16.7963    0.0000 C   0  0  0  0  0  0  0  0  0  0  0  0
    2.2202   17.8266    0.0000 C   0  0  0  0  0  0  0  0  0  0  0  0
    1.8731   19.2859    0.0000 C   0  0  0  0  0  0  0  0  0  0  0  0
    3.5970   18.4219    0.0000 C   0  0  0  0  0  0  0  0  0  0  0  0
    0.0154   15.6741    0.0000 C   0  0  0  0  0  0  0  0  0  0  0  0
    0.0292   17.1740    0.0000 O   0  0  0  0  0  0  0  0  0  0  0  0
   -1.4836   15.7284    0.0000 N   0  0  0  0  0  0  0  0  0  0  0  0
   -2.9658   15.4980    0.0000 C   0  0  0  0  0  0  0  0  0  0  0  0
   -4.0467   16.5379    0.0000 C   0  0  0  0  0  0  0  0  0  0  0  0
   -3.6866   17.9941    0.0000 C   0  0  0  0  0  0  0  0  0  0  0  0
   -4.7676   19.0340    0.0000 C   0  0  0  0  0  0  0  0  0  0  0  0
   -4.4074   20.4901    0.0000 O   0  0  0  0  0  0  0  0  0  0  0  0
   -6.2087   18.6178    0.0000 O   0  0  0  0  0  0  0  0  0  0  0  0
   -4.3776   14.9912    0.0000 C   0  0  0  0  0  0  0  0  0  0  0  0
   -5.1769   16.2605    0.0000 O   0  0  0  0  0  0  0  0  0  0  0  0
   -5.6680   14.2265    0.0000 N   0  0  0  0  0  0  0  0  0  0  0  0
   -6.7904   13.2313    0.0000 C   0  0  0  0  0  0  0  0  0  0  0  0
   -8.2620   13.5218    0.0000 C   0  0  0  0  0  0  0  0  0  0  0  0
   -8.7462   14.9415    0.0000 C   0  0  0  0  0  0  0  0  0  0  0  0
  -10.2178   15.2319    0.0000 N   0  0  0  0  0  0  0  0  0  0  0  0
   -7.7589   16.0707    0.0000 O   0  0  0  0  0  0  0  0  0  0  0  0
   -7.7041   12.0418    0.0000 C   0  0  0  0  0  0  0  0  0  0  0  0
   -9.0628   12.6774    0.0000 O   0  0  0  0  0  0  0  0  0  0  0  0
   -8.3762   10.7008    0.0000 N   0  0  0  0  0  0  0  0  0  0  0  0
   -8.7824    9.2568    0.0000 C   0  0  0  0  0  0  0  0  0  0  0  0
  -10.1774    8.7055    0.0000 C   0  0  0  0  0  0  0  0  0  0  0  0
   -8.9079    7.7621    0.0000 C   0  0  0  0  0  0  0  0  0  0  0  0
  -10.3945    7.5623    0.0000 O   0  0  0  0  0  0  0  0  0  0  0  0
   -8.7483    6.2706    0.0000 N   0  0  0  0  0  0  0  0  0  0  0  0
   -8.3093    4.8363    0.0000 C   0  0  0  0  0  0  0  0  0  0  0  0
   -9.1849    3.6183    0.0000 C   0  0  0  0  0  0  0  0  0  0  0  0
  -10.6481    3.9484    0.0000 C   0  0  0  0  0  0  0  0  0  0  0  0
   -9.5910    2.1743    0.0000 C   0  0  0  0  0  0  0  0  0  0  0  0
  -11.0446    1.8041    0.0000 C   0  0  0  0  0  0  0  0  0  0  0  0
   -7.6069    3.5109    0.0000 C   0  0  0  0  0  0  0  0  0  0  0  0
   -8.8594    2.6856    0.0000 O   0  0  0  0  0  0  0  0  0  0  0  0
   -6.6662    2.3425    0.0000 N   0  0  0  0  0  0  0  0  0  0  0  0
   -5.5215    1.3732    0.0000 C   0  0  0  0  0  0  0  0  0  0  0  0
   -4.2140    0.6380    0.0000 C   0  0  0  0  0  0  0  0  0  0  0  0
   -2.7910    0.1636    0.0000 C   0  0  0  0  0  0  0  0  0  0  0  0
   -1.3039   -0.0329    0.0000 C   0  0  0  0  0  0  0  0  0  0  0  0
    0.1935    0.0555    0.0000 C   0  0  0  0  0  0  0  0  0  0  0  0
   -6.8983    0.7779    0.0000 C   0  0  0  0  0  0  0  0  0  0  0  0
   -5.5996   -0.1248    0.0000 C   0  0  0  0  0  0  0  0  0  0  0  0
   -4.5763   -1.2216    0.0000 O   0  0  0  0  0  0  0  0  0  0  0  0
   -6.9359   -0.8062    0.0000 N   0  0  0  0  0  0  0  0  0  0  0  0
   -7.0139   -2.3041    0.0000 C   0  0  0  0  0  0  0  0  0  0  0  0
   -6.5750   -3.7385    0.0000 C   0  0  0  0  0  0  0  0  0  0  0  0
   -5.1133   -4.0755    0.0000 C   0  0  0  0  0  0  0  0  0  0  0  0
   -4.6743   -5.5098    0.0000 O   0  0  0  0  0  0  0  0  0  0  0  0
   -4.0906   -2.9781    0.0000 O   0  0  0  0  0  0  0  0  0  0  0  0
   -8.3502   -2.9855    0.0000 C   0  0  0  0  0  0  0  0  0  0  0  0
   -8.6103   -4.4628    0.0000 O   0  0  0  0  0  0  0  0  0  0  0  0
   -9.6085   -2.1689    0.0000 N   0  0  0  0  0  0  0  0  0  0  0  0
  -10.9448   -2.8503    0.0000 C   0  0  0  0  0  0  0  0  0  0  0  0
  -11.9675   -3.9476    0.0000 C   0  0  0  0  0  0  0  0  0  0  0  0
  -12.5532   -5.3285    0.0000 O   0  0  0  0  0  0  0  0  0  0  0  0
  -13.4593   -3.7913    0.0000 C   0  0  0  0  0  0  0  0  0  0  0  0
  -12.2030   -2.0337    0.0000 C   0  0  0  0  0  0  0  0  0  0  0  0
  -12.1250   -0.5357    0.0000 O   0  0  0  0  0  0  0  0  0  0  0  0
  -13.5394   -2.7151    0.0000 N   0  0  0  0  0  0  0  0  0  0  0  0
  -14.7976   -1.8985    0.0000 C   0  0  0  0  0  0  0  0  0  0  0  0
  -15.7007   -0.7008    0.0000 C   0  0  0  0  0  0  0  0  0  0  0  0
  -17.2007   -0.7012    0.0000 C   0  0  0  0  0  0  0  0  0  0  0  0
  -16.1339   -2.5799    0.0000 C   0  0  0  0  0  0  0  0  0  0  0  0
  -16.2120   -4.0778    0.0000 O   0  0  0  0  0  0  0  0  0  0  0  0
  -17.3922   -1.7633    0.0000 N   0  0  0  0  0  0  0  0  0  0  0  0
  -18.7285   -2.4446    0.0000 C   0  0  0  0  0  0  0  0  0  0  0  0
  -19.7511   -3.5420    0.0000 C   0  0  0  0  0  0  0  0  0  0  0  0
  -19.3122   -4.9763    0.0000 C   0  0  0  0  0  0  0  0  0  0  0  0
  -20.3348   -6.0736    0.0000 C   0  0  0  0  0  0  0  0  0  0  0  0
  -19.8959   -7.5080    0.0000 N   0  0  0  0  0  0  0  0  0  0  0  0
  -20.9185   -8.6053    0.0000 C   0  0  0  0  0  0  0  0  0  0  0  0
  -20.4796  -10.0396    0.0000 N   0  0  0  0  0  0  0  0  0  0  0  0
  -22.3802   -8.2683    0.0000 N   0  0  0  0  0  0  0  0  0  0  0  0
  -19.9867   -1.6281    0.0000 C   0  0  0  0  0  0  0  0  0  0  0  0
  -19.9086   -0.1301    0.0000 O   0  0  0  0  0  0  0  0  0  0  0  0
  -21.3230   -2.3094    0.0000 N   0  0  0  0  0  0  0  0  0  0  0  0
  -22.5813   -1.4928    0.0000 C   0  0  0  0  0  0  0  0  0  0  0  0
  -23.4843   -0.2951    0.0000 C   0  0  0  0  0  0  0  0  0  0  0  0
  -24.9731   -0.4784    0.0000 C   0  0  0  0  0  0  0  0  0  0  0  0
  -25.8762    0.7193    0.0000 C   0  0  0  0  0  0  0  0  0  0  0  0
  -27.3649    0.5361    0.0000 O   0  0  0  0  0  0  0  0  0  0  0  0
  -25.2905    2.1002    0.0000 O   0  0  0  0  0  0  0  0  0  0  0  0
  -23.9176   -2.1742    0.0000 C   0  0  0  0  0  0  0  0  0  0  0  0
  -25.2660   -1.5171    0.0000 O   0  0  0  0  0  0  0  0  0  0  0  0
  -23.9956   -3.6722    0.0000 N   0  0  0  0  0  0  0  0  0  0  0  0
  -25.3320   -4.3536    0.0000 C   0  0  0  0  0  0  0  0  0  0  0  0
  -26.8207   -4.5368    0.0000 C   0  0  0  0  0  0  0  0  0  0  0  0
  -27.7238   -3.3391    0.0000 C   0  0  0  0  0  0  0  0  0  0  0  0
  -29.2126   -3.5223    0.0000 C   0  0  0  0  0  0  0  0  0  0  0  0
  -30.1156   -2.3247    0.0000 N   0  0  0  0  0  0  0  0  0  0  0  0
  -29.7982   -4.9033    0.0000 O   0  0  0  0  0  0  0  0  0  0  0  0
  -25.4100   -5.8515    0.0000 C   0  0  0  0  0  0  0  0  0  0  0  0
  -26.6533   -6.6907    0.0000 O   0  0  0  0  0  0  0  0  0  0  0  0
  -24.1518   -6.6681    0.0000 O   0  0  0  0  0  0  0  0  0  0  0  0
    1.3448   -1.9829    0.0000 H   0  0  0  0  0  0  0  0  0  0  0  0
   -1.2460   -2.1772    0.0000 H   0  0  0  0  0  0  0  0  0  0  0  0
    1.6713   -3.9535    0.0000 H   0  0  0  0  0  0  0  0  0  0  0  0
    0.8347   -5.6910    0.0000 H   0  0  0  0  0  0  0  0  0  0  0  0
   -1.6386   -3.8016    0.0000 H   0  0  0  0  0  0  0  0  0  0  0  0
   -2.4752   -5.5390    0.0000 H   0  0  0  0  0  0  0  0  0  0  0  0
   -3.4108   -6.6990    0.0000 H   0  0  0  0  0  0  0  0  0  0  0  0
   -0.5829   -8.6352    0.0000 H   0  0  0  0  0  0  0  0  0  0  0  0
   -4.9827   -9.2264    0.0000 H   0  0  0  0  0  0  0  0  0  0  0  0
   -3.4169  -10.3520    0.0000 H   0  0  0  0  0  0  0  0  0  0  0  0
   -5.6387   -7.3397    0.0000 H   0  0  0  0  0  0  0  0  0  0  0  0
    0.9486   -9.3040    0.0000 H   0  0  0  0  0  0  0  0  0  0  0  0
    1.9294  -11.0441    0.0000 H   0  0  0  0  0  0  0  0  0  0  0  0
   -2.1132  -12.2898    0.0000 H   0  0  0  0  0  0  0  0  0  0  0  0
   -1.1068  -11.2211    0.0000 H   0  0  0  0  0  0  0  0  0  0  0  0
   -1.0575  -15.1991    0.0000 H   0  0  0  0  0  0  0  0  0  0  0  0
    0.3229  -13.8526    0.0000 H   0  0  0  0  0  0  0  0  0  0  0  0
    3.5972  -11.1487    0.0000 H   0  0  0  0  0  0  0  0  0  0  0  0
    5.1140  -12.4484    0.0000 H   0  0  0  0  0  0  0  0  0  0  0  0
    1.7413  -15.0016    0.0000 H   0  0  0  0  0  0  0  0  0  0  0  0
    2.3216  -13.6532    0.0000 H   0  0  0  0  0  0  0  0  0  0  0  0
    3.7284  -17.3745    0.0000 H   0  0  0  0  0  0  0  0  0  0  0  0
    4.5650  -15.6370    0.0000 H   0  0  0  0  0  0  0  0  0  0  0  0
    6.7171  -11.9763    0.0000 H   0  0  0  0  0  0  0  0  0  0  0  0
    8.5870  -12.6788    0.0000 H   0  0  0  0  0  0  0  0  0  0  0  0
    6.3014  -16.0253    0.0000 H   0  0  0  0  0  0  0  0  0  0  0  0
    6.3750  -14.7660    0.0000 H   0  0  0  0  0  0  0  0  0  0  0  0
    9.1616  -15.8629    0.0000 H   0  0  0  0  0  0  0  0  0  0  0  0
    7.4925  -19.3582    0.0000 H   0  0  0  0  0  0  0  0  0  0  0  0
    5.8074  -18.7710    0.0000 H   0  0  0  0  0  0  0  0  0  0  0  0
    5.8762  -16.9879    0.0000 H   0  0  0  0  0  0  0  0  0  0  0  0
    8.7426  -19.2644    0.0000 H   0  0  0  0  0  0  0  0  0  0  0  0
   10.3212  -18.4325    0.0000 H   0  0  0  0  0  0  0  0  0  0  0  0
    9.7577  -16.6855    0.0000 H   0  0  0  0  0  0  0  0  0  0  0  0
    9.9319  -11.6869    0.0000 H   0  0  0  0  0  0  0  0  0  0  0  0
   11.9292  -11.7075    0.0000 H   0  0  0  0  0  0  0  0  0  0  0  0
   10.9147  -15.9629    0.0000 H   0  0  0  0  0  0  0  0  0  0  0  0
   10.3134  -14.3734    0.0000 H   0  0  0  0  0  0  0  0  0  0  0  0
   12.2765  -17.1650    0.0000 H   0  0  0  0  0  0  0  0  0  0  0  0
   14.0342  -16.3718    0.0000 H   0  0  0  0  0  0  0  0  0  0  0  0
   13.5582  -14.5031    0.0000 H   0  0  0  0  0  0  0  0  0  0  0  0
   12.8538  -10.3154    0.0000 H   0  0  0  0  0  0  0  0  0  0  0  0
   14.7378   -9.6517    0.0000 H   0  0  0  0  0  0  0  0  0  0  0  0
   14.3399  -13.5045    0.0000 H   0  0  0  0  0  0  0  0  0  0  0  0
   16.0840  -13.8819    0.0000 H   0  0  0  0  0  0  0  0  0  0  0  0
   16.9206  -12.1445    0.0000 H   0  0  0  0  0  0  0  0  0  0  0  0
   15.1304   -8.0273    0.0000 H   0  0  0  0  0  0  0  0  0  0  0  0
   16.6738   -6.7593    0.0000 H   0  0  0  0  0  0  0  0  0  0  0  0
   18.6319  -10.6712    0.0000 H   0  0  0  0  0  0  0  0  0  0  0  0
   17.0174   -9.9112    0.0000 H   0  0  0  0  0  0  0  0  0  0  0  0
   21.2844   -8.9792    0.0000 H   0  0  0  0  0  0  0  0  0  0  0  0
   19.7186   -7.8537    0.0000 H   0  0  0  0  0  0  0  0  0  0  0  0
   16.4872   -5.0986    0.0000 H   0  0  0  0  0  0  0  0  0  0  0  0
   17.5038   -3.3791    0.0000 H   0  0  0  0  0  0  0  0  0  0  0  0
   19.6756   -6.5863    0.0000 H   0  0  0  0  0  0  0  0  0  0  0  0
   21.2542   -5.7543    0.0000 H   0  0  0  0  0  0  0  0  0  0  0  0
   20.7782   -3.8856    0.0000 H   0  0  0  0  0  0  0  0  0  0  0  0
   16.7604   -1.8824    0.0000 H   0  0  0  0  0  0  0  0  0  0  0  0
   17.1276    0.0811    0.0000 H   0  0  0  0  0  0  0  0  0  0  0  0
   21.1422   -1.6570    0.0000 H   0  0  0  0  0  0  0  0  0  0  0  0
   19.4169   -2.1126    0.0000 H   0  0  0  0  0  0  0  0  0  0  0  0
   20.3264    2.8028    0.0000 H   0  0  0  0  0  0  0  0  0  0  0  0
   23.2014    3.4583    0.0000 H   0  0  0  0  0  0  0  0  0  0  0  0
   25.0399    0.7621    0.0000 H   0  0  0  0  0  0  0  0  0  0  0  0
   15.9172    1.2333    0.0000 H   0  0  0  0  0  0  0  0  0  0  0  0
   15.5907    3.2039    0.0000 H   0  0  0  0  0  0  0  0  0  0  0  0
   20.0056    3.1205    0.0000 H   0  0  0  0  0  0  0  0  0  0  0  0
   18.4921    1.9256    0.0000 H   0  0  0  0  0  0  0  0  0  0  0  0
   21.7805    5.7116    0.0000 H   0  0  0  0  0  0  0  0  0  0  0  0
   21.5220    3.1264    0.0000 H   0  0  0  0  0  0  0  0  0  0  0  0
   14.0592    3.8726    0.0000 H   0  0  0  0  0  0  0  0  0  0  0  0
   13.0784    5.6128    0.0000 H   0  0  0  0  0  0  0  0  0  0  0  0
   17.2638    6.6788    0.0000 H   0  0  0  0  0  0  0  0  0  0  0  0
   16.2421    5.4039    0.0000 H   0  0  0  0  0  0  0  0  0  0  0  0
   14.6849    8.4213    0.0000 H   0  0  0  0  0  0  0  0  0  0  0  0
   18.2102   10.0259    0.0000 H   0  0  0  0  0  0  0  0  0  0  0  0
   19.1236    8.4930    0.0000 H   0  0  0  0  0  0  0  0  0  0  0  0
   17.9247    7.1713    0.0000 H   0  0  0  0  0  0  0  0  0  0  0  0
   17.1923   10.7576    0.0000 H   0  0  0  0  0  0  0  0  0  0  0  0
   15.4482   11.1350    0.0000 H   0  0  0  0  0  0  0  0  0  0  0  0
   14.6117    9.3976    0.0000 H   0  0  0  0  0  0  0  0  0  0  0  0
   11.4105    5.7174    0.0000 H   0  0  0  0  0  0  0  0  0  0  0  0
    9.8937    7.0171    0.0000 H   0  0  0  0  0  0  0  0  0  0  0  0
   13.4062    9.6248    0.0000 H   0  0  0  0  0  0  0  0  0  0  0  0
   12.9381    7.9028    0.0000 H   0  0  0  0  0  0  0  0  0  0  0  0
   13.1357   11.4210    0.0000 H   0  0  0  0  0  0  0  0  0  0  0  0
    8.6493    6.6165    0.0000 H   0  0  0  0  0  0  0  0  0  0  0  0
    8.3055    7.5293    0.0000 H   0  0  0  0  0  0  0  0  0  0  0  0
    8.0480    6.2968    0.0000 H   0  0  0  0  0  0  0  0  0  0  0  0
    8.0760    5.7706    0.0000 H   0  0  0  0  0  0  0  0  0  0  0  0
    7.7171    4.7408    0.0000 H   0  0  0  0  0  0  0  0  0  0  0  0
    7.5347    4.2695    0.0000 H   0  0  0  0  0  0  0  0  0  0  0  0
    6.9705    3.1439    0.0000 H   0  0  0  0  0  0  0  0  0  0  0  0
    6.7021    2.7156    0.0000 H   0  0  0  0  0  0  0  0  0  0  0  0
    5.9351    1.7170    0.0000 H   0  0  0  0  0  0  0  0  0  0  0  0
    5.5905    1.3473    0.0000 H   0  0  0  0  0  0  0  0  0  0  0  0
    4.6484    0.5120    0.0000 H   0  0  0  0  0  0  0  0  0  0  0  0
    4.2401    0.2141    0.0000 H   0  0  0  0  0  0  0  0  0  0  0  0
    2.9738   -0.4353    0.0000 H   0  0  0  0  0  0  0  0  0  0  0  0
    2.1538   -0.9861    0.0000 H   0  0  0  0  0  0  0  0  0  0  0  0
    9.4953    9.4028    0.0000 H   0  0  0  0  0  0  0  0  0  0  0  0
    8.8067   10.8845    0.0000 H   0  0  0  0  0  0  0  0  0  0  0  0
    7.1731   10.8581    0.0000 H   0  0  0  0  0  0  0  0  0  0  0  0
    7.3541   12.0828    0.0000 H   0  0  0  0  0  0  0  0  0  0  0  0
    6.6277   12.8001    0.0000 H   0  0  0  0  0  0  0  0  0  0  0  0
    5.6075   15.7149    0.0000 H   0  0  0  0  0  0  0  0  0  0  0  0
    4.2475   14.8095    0.0000 H   0  0  0  0  0  0  0  0  0  0  0  0
    7.4783   13.0411    0.0000 H   0  0  0  0  0  0  0  0  0  0  0  0
    9.0250   16.3625    0.0000 H   0  0  0  0  0  0  0  0  0  0  0  0
    7.5786   17.4075    0.0000 H   0  0  0  0  0  0  0  0  0  0  0  0
    6.1563   16.3298    0.0000 H   0  0  0  0  0  0  0  0  0  0  0  0
    9.6642   15.2841    0.0000 H   0  0  0  0  0  0  0  0  0  0  0  0
    9.8863   13.5135    0.0000 H   0  0  0  0  0  0  0  0  0  0  0  0
    8.0819   12.8334    0.0000 H   0  0  0  0  0  0  0  0  0  0  0  0
    3.7376   15.9377    0.0000 H   0  0  0  0  0  0  0  0  0  0  0  0
    2.7388   16.1484    0.0000 H   0  0  0  0  0  0  0  0  0  0  0  0
    0.3047   18.0489    0.0000 H   0  0  0  0  0  0  0  0  0  0  0  0
   -0.3500   16.5519    0.0000 H   0  0  0  0  0  0  0  0  0  0  0  0
    3.3240   16.8110    0.0000 H   0  0  0  0  0  0  0  0  0  0  0  0
    2.8296   20.4414    0.0000 H   0  0  0  0  0  0  0  0  0  0  0  0
    1.0478   20.5384    0.0000 H   0  0  0  0  0  0  0  0  0  0  0  0
    0.4339   18.8629    0.0000 H   0  0  0  0  0  0  0  0  0  0  0  0
    3.9503   19.8797    0.0000 H   0  0  0  0  0  0  0  0  0  0  0  0
    5.0944   18.5103    0.0000 H   0  0  0  0  0  0  0  0  0  0  0  0
    3.9441   16.9626    0.0000 H   0  0  0  0  0  0  0  0  0  0  0  0
   -1.3888   17.2254    0.0000 H   0  0  0  0  0  0  0  0  0  0  0  0
   -2.3430   16.8626    0.0000 H   0  0  0  0  0  0  0  0  0  0  0  0
   -5.3339   17.3081    0.0000 H   0  0  0  0  0  0  0  0  0  0  0  0
   -5.1596   15.5322    0.0000 H   0  0  0  0  0  0  0  0  0  0  0  0
   -2.8501   19.2392    0.0000 H   0  0  0  0  0  0  0  0  0  0  0  0
   -2.2089   17.7364    0.0000 H   0  0  0  0  0  0  0  0  0  0  0  0
   -6.5520   15.4384    0.0000 H   0  0  0  0  0  0  0  0  0  0  0  0
   -7.1836   14.6789    0.0000 H   0  0  0  0  0  0  0  0  0  0  0  0
   -9.7612   13.4738    0.0000 H   0  0  0  0  0  0  0  0  0  0  0  0
   -8.6544   12.0741    0.0000 H   0  0  0  0  0  0  0  0  0  0  0  0
  -10.7021   16.6516    0.0000 H   0  0  0  0  0  0  0  0  0  0  0  0
  -11.2052   14.1027    0.0000 H   0  0  0  0  0  0  0  0  0  0  0  0
   -9.7750   11.2424    0.0000 H   0  0  0  0  0  0  0  0  0  0  0  0
   -9.8958   10.2619    0.0000 H   0  0  0  0  0  0  0  0  0  0  0  0
  -11.3523    9.6380    0.0000 H   0  0  0  0  0  0  0  0  0  0  0  0
  -11.4127    7.8546    0.0000 H   0  0  0  0  0  0  0  0  0  0  0  0
   -9.7249    7.2754    0.0000 H   0  0  0  0  0  0  0  0  0  0  0  0
  -10.2436    6.1513    0.0000 H   0  0  0  0  0  0  0  0  0  0  0  0
   -9.7487    5.2585    0.0000 H   0  0  0  0  0  0  0  0  0  0  0  0
   -8.0310    2.6599    0.0000 H   0  0  0  0  0  0  0  0  0  0  0  0
  -11.7167    2.6703    0.0000 H   0  0  0  0  0  0  0  0  0  0  0  0
  -12.0289    4.4183    0.0000 H   0  0  0  0  0  0  0  0  0  0  0  0
  -10.6327    5.2669    0.0000 H   0  0  0  0  0  0  0  0  0  0  0  0
   -9.4789    0.6785    0.0000 H   0  0  0  0  0  0  0  0  0  0  0  0
   -8.0985    2.0251    0.0000 H   0  0  0  0  0  0  0  0  0  0  0  0
  -11.4508    0.3601    0.0000 H   0  0  0  0  0  0  0  0  0  0  0  0
  -12.5372    1.9533    0.0000 H   0  0  0  0  0  0  0  0  0  0  0  0
  -11.5154    3.2283    0.0000 H   0  0  0  0  0  0  0  0  0  0  0  0
   -7.7400    1.2951    0.0000 H   0  0  0  0  0  0  0  0  0  0  0  0
   -4.0071   -0.8476    0.0000 H   0  0  0  0  0  0  0  0  0  0  0  0
   -5.2120   -0.4818    0.0000 H   0  0  0  0  0  0  0  0  0  0  0  0
   -2.4834   -1.3045    0.0000 H   0  0  0  0  0  0  0  0  0  0  0  0
   -3.5590   -1.1248    0.0000 H   0  0  0  0  0  0  0  0  0  0  0  0
   -0.5597   -1.3353    0.0000 H   0  0  0  0  0  0  0  0  0  0  0  0
   -1.9824   -1.3707    0.0000 H   0  0  0  0  0  0  0  0  0  0  0  0
    0.4239   -1.4267    0.0000 H   0  0  0  0  0  0  0  0  0  0  0  0
   -7.4266   -0.6259    0.0000 H   0  0  0  0  0  0  0  0  0  0  0  0
   -8.3957    0.6895    0.0000 H   0  0  0  0  0  0  0  0  0  0  0  0
   -7.4207    2.1840    0.0000 H   0  0  0  0  0  0  0  0  0  0  0  0
   -8.2843   -0.1490    0.0000 H   0  0  0  0  0  0  0  0  0  0  0  0
   -5.5252   -2.1209    0.0000 H   0  0  0  0  0  0  0  0  0  0  0  0
   -6.6530   -5.2364    0.0000 H   0  0  0  0  0  0  0  0  0  0  0  0
   -8.0303   -4.1018    0.0000 H   0  0  0  0  0  0  0  0  0  0  0  0
   -9.5304   -0.6709    0.0000 H   0  0  0  0  0  0  0  0  0  0  0  0
  -10.0417   -4.0480    0.0000 H   0  0  0  0  0  0  0  0  0  0  0  0
  -10.7092   -4.7642    0.0000 H   0  0  0  0  0  0  0  0  0  0  0  0
  -11.6501   -6.5262    0.0000 H   0  0  0  0  0  0  0  0  0  0  0  0
  -14.4518   -4.7079    0.0000 H   0  0  0  0  0  0  0  0  0  0  0  0
  -14.6874   -2.7940    0.0000 H   0  0  0  0  0  0  0  0  0  0  0  0
  -13.5605   -2.1164    0.0000 H   0  0  0  0  0  0  0  0  0  0  0  0
  -13.7994   -4.1924    0.0000 H   0  0  0  0  0  0  0  0  0  0  0  0
  -13.7749   -0.8012    0.0000 H   0  0  0  0  0  0  0  0  0  0  0  0
  -16.1396    0.7335    0.0000 H   0  0  0  0  0  0  0  0  0  0  0  0
  -14.3644   -0.0194    0.0000 H   0  0  0  0  0  0  0  0  0  0  0  0
  -18.0925    0.3137    0.0000 H   0  0  0  0  0  0  0  0  0  0  0  0
  -18.5257   -1.5654    0.0000 H   0  0  0  0  0  0  0  0  0  0  0  0
  -17.4754   -2.3565    0.0000 H   0  0  0  0  0  0  0  0  0  0  0  0
  -17.4973   -0.2670    0.0000 H   0  0  0  0  0  0  0  0  0  0  0  0
  -17.6861   -3.5233    0.0000 H   0  0  0  0  0  0  0  0  0  0  0  0
  -21.0875   -4.2233    0.0000 H   0  0  0  0  0  0  0  0  0  0  0  0
  -20.9172   -2.5984    0.0000 H   0  0  0  0  0  0  0  0  0  0  0  0
  -18.4091   -6.1740    0.0000 H   0  0  0  0  0  0  0  0  0  0  0  0
  -17.9028   -4.4629    0.0000 H   0  0  0  0  0  0  0  0  0  0  0  0
  -21.6712   -6.7550    0.0000 H   0  0  0  0  0  0  0  0  0  0  0  0
  -21.3772   -4.9950    0.0000 H   0  0  0  0  0  0  0  0  0  0  0  0
  -18.4342   -7.8450    0.0000 H   0  0  0  0  0  0  0  0  0  0  0  0
  -21.5022  -11.1369    0.0000 H   0  0  0  0  0  0  0  0  0  0  0  0
  -19.0179  -10.3766    0.0000 H   0  0  0  0  0  0  0  0  0  0  0  0
  -23.4029   -9.3656    0.0000 H   0  0  0  0  0  0  0  0  0  0  0  0
  -22.8192   -6.8340    0.0000 H   0  0  0  0  0  0  0  0  0  0  0  0
  -21.5831   -3.7867    0.0000 H   0  0  0  0  0  0  0  0  0  0  0  0
  -21.5586   -0.3955    0.0000 H   0  0  0  0  0  0  0  0  0  0  0  0
  -23.9233    1.1392    0.0000 H   0  0  0  0  0  0  0  0  0  0  0  0
  -22.1480    0.3862    0.0000 H   0  0  0  0  0  0  0  0  0  0  0  0
  -26.3094   -1.1598    0.0000 H   0  0  0  0  0  0  0  0  0  0  0  0
  -25.0774   -1.9748    0.0000 H   0  0  0  0  0  0  0  0  0  0  0  0
  -22.7374   -4.4888    0.0000 H   0  0  0  0  0  0  0  0  0  0  0  0
  -25.5928   -2.8764    0.0000 H   0  0  0  0  0  0  0  0  0  0  0  0
  -28.1570   -5.2182    0.0000 H   0  0  0  0  0  0  0  0  0  0  0  0
  -26.5599   -6.0139    0.0000 H   0  0  0  0  0  0  0  0  0  0  0  0
  -28.1628   -1.9048    0.0000 H   0  0  0  0  0  0  0  0  0  0  0  0
  -26.4805   -2.4999    0.0000 H   0  0  0  0  0  0  0  0  0  0  0  0
  -31.6044   -2.5079    0.0000 H   0  0  0  0  0  0  0  0  0  0  0  0
  -29.5299   -0.9437    0.0000 H   0  0  0  0  0  0  0  0  0  0  0  0
  1  2  1  0
  2  3  1  0
  3  4  1  0
  4  5  2  0
  4  6  1  0
  6  7  1  0
  7  8  1  0
  8  9  1  0
  7 10  1  0
 10 11  2  0
 10 12  1  0
 12 13  1  0
 13 14  1  0
 14 15  1  0
 15 16  1  0
 16 17  2  0
 16 18  1  0
 13 19  1  0
 19 20  2  0
 19 21  1  0
 21 22  1  0
 22 23  1  0
 23 24  1  0
 24 25  1  0
 25 26  2  0
 25 27  1  0
 22 28  1  0
 28 29  2  0
 28 30  1  0
 30 31  1  0
 31 32  1  0
 32 33  1  0
 33 34  1  0
 33 35  1  0
 31 36  1  0
 36 37  2  0
 36 38  1  0
 38 39  1  0
 39 40  1  0
 40 41  1  0
 39 42  1  0
 42 43  2  0
 42 44  1  0
 44 45  1  0
 45 46  1  0
 45 47  1  0
 47 48  2  0
 47 49  1  0
 49 50  1  0
 50 51  1  0
 51 52  1  0
 52 53  1  0
 53 54  2  0
 53 55  1  0
 50 56  1  0
 56 57  2  0
 56 58  1  0
 58 59  1  0
 59 60  1  0
 59 61  1  0
 61 62  2  0
 61 63  1  0
 63 64  1  0
 64 65  1  0
 65 66  1  0
 66 67  2  0
 67 68  1  0
 68 69  1  0
 69 70  2  0
 64 71  1  0
 71 72  2  0
 71 73  1  0
 73 74  1  0
 74 75  1  0
 75 76  1  0
 76 77  1  0
 76 78  2  0
 74 79  1  0
 79 80  2  0
 79 81  1  0
 81 82  1  0
 82 83  1  0
 83 84  1  0
 84 85  1  0
 84 86  1  0
 82 87  1  0
 87 88  2  0
 87 89  1  0
 89 90  1  0
 90 91  1  0
 91 92  1  0
 90 93  1  0
 93 94  2  0
 93 95  1  0
 96 95  1  6
 96 97  1  0
 97 98  1  0
 98 99  1  0
 99100  1  0
100101  1  0
101102  1  0
102103  1  0
 96104  1  0
 96105  1  0
105106  2  0
105107  1  0
107108  1  0
108109  1  0
109110  1  0
110111  1  0
110112  1  0
108113  1  0
113114  2  0
113115  1  0
115116  1  0
116117  1  0
117118  1  0
118119  1  0
118120  1  0
116121  1  0
121122  2  0
121123  1  0
123124  1  0
124125  1  0
125126  1  0
126127  1  0
127128  2  0
127129  1  0
124130  1  0
130131  2  0
130132  1  0
132133  1  0
133134  1  0
134135  1  0
135136  1  0
135137  2  0
133138  1  0
138139  2  0
138140  1  0
140141  1  0
141142  1  0
141143  1  0
143144  2  0
143145  1  0
145146  1  0
146147  1  0
147148  1  0
147149  1  0
149150  1  0
146151  1  0
151152  2  0
151153  1  0
153154  1  0
154155  1  0
155156  1  0
156157  1  0
157158  1  0
154159  1  0
154160  1  1
160161  2  0
160162  1  0
162163  1  0
163164  1  0
164165  1  0
165166  2  0
165167  1  0
163168  1  0
168169  2  0
168170  1  0
170171  1  0
171172  1  0
172173  1  0
172174  1  0
171175  1  0
175176  2  0
175177  1  0
177178  1  0
178179  1  0
179180  1  0
178181  1  0
181182  2  0
181183  1  0
183184  1  0
184185  1  0
185186  1  0
186187  1  0
187188  1  0
188189  1  0
189190  2  3
189191  1  0
184192  1  0
192193  2  0
192194  1  0
194195  1  0
195196  1  0
196197  1  0
197198  1  0
198199  2  0
198200  1  0
195201  1  0
201202  2  0
201203  1  0
203204  1  0
204205  1  0
205206  1  0
206207  1  0
207208  1  0
207209  2  0
204210  1  0
210211  2  0
210212  1  0
 70 66  1  0
103158  2  0
  1213  1  0
  1214  1  0
  2215  1  0
  2216  1  0
  3217  1  0
  3218  1  0
  6219  1  0
  7220  1  6
  8221  1  0
  8222  1  0
  9223  1  0
 12224  1  0
 13225  1  6
 14226  1  0
 14227  1  0
 15228  1  0
 15229  1  0
 21230  1  0
 22231  1  6
 23232  1  0
 23233  1  0
 24234  1  0
 24235  1  0
 30236  1  0
 31237  1  6
 32238  1  0
 32239  1  0
 33240  1  0
 34241  1  0
 34242  1  0
 34243  1  0
 35244  1  0
 35245  1  0
 35246  1  0
 38247  1  0
 39248  1  6
 40249  1  0
 40250  1  0
 41251  1  0
 41252  1  0
 41253  1  0
 44254  1  0
 45255  1  6
 46256  1  0
 46257  1  0
 46258  1  0
 49259  1  0
 50260  1  6
 51261  1  0
 51262  1  0
 52263  1  0
 52264  1  0
 58265  1  0
 59266  1  6
 60267  1  0
 60268  1  0
 60269  1  0
 63270  1  0
 64271  1  6
 65272  1  0
 65273  1  0
 67274  1  0
 68275  1  0
 69276  1  0
 73277  1  0
 74278  1  6
 75279  1  0
 75280  1  0
 77281  1  0
 77282  1  0
 81283  1  0
 82284  1  6
 83285  1  0
 83286  1  0
 84287  1  0
 85288  1  0
 85289  1  0
 85290  1  0
 86291  1  0
 86292  1  0
 86293  1  0
 89294  1  0
 90295  1  6
 91296  1  0
 91297  1  0
 92298  1  0
 95299  1  0
 97300  1  0
 97301  1  0
 98302  1  0
 98303  1  0
 99304  1  0
 99305  1  0
100306  1  0
100307  1  0
101308  1  0
101309  1  0
102310  1  0
102311  1  0
103312  1  0
104313  1  0
104314  1  0
104315  1  0
107316  1  0
108317  1  6
109318  1  0
109319  1  0
110320  1  0
111321  1  0
111322  1  0
111323  1  0
112324  1  0
112325  1  0
112326  1  0
115327  1  0
116328  1  6
117329  1  0
117330  1  0
118331  1  0
119332  1  0
119333  1  0
119334  1  0
120335  1  0
120336  1  0
120337  1  0
123338  1  0
124339  1  6
125340  1  0
125341  1  0
126342  1  0
126343  1  0
132344  1  0
133345  1  6
134346  1  0
134347  1  0
136348  1  0
136349  1  0
140350  1  0
141351  1  6
142352  1  0
142353  1  0
142354  1  0
145355  1  0
146356  1  6
147357  1  1
148358  1  0
148359  1  0
148360  1  0
149361  1  0
149362  1  0
150363  1  0
150364  1  0
150365  1  0
153366  1  0
155367  1  0
155368  1  0
156369  1  0
156370  1  0
157371  1  0
157372  1  0
158373  1  0
159374  1  0
159375  1  0
159376  1  0
162377  1  0
163378  1  1
164379  1  0
164380  1  0
170381  1  0
171382  1  1
172383  1  1
173384  1  0
174385  1  0
174386  1  0
174387  1  0
177388  1  0
178389  1  6
179390  1  0
179391  1  0
180392  1  0
180393  1  0
180394  1  0
183395  1  0
184396  1  1
185397  1  0
185398  1  0
186399  1  0
186400  1  0
187401  1  0
187402  1  0
188403  1  0
190404  1  0
190405  1  0
191406  1  0
191407  1  0
194408  1  0
195409  1  6
196410  1  0
196411  1  0
197412  1  0
197413  1  0
203414  1  0
204415  1  6
205416  1  0
205417  1  0
206418  1  0
206419  1  0
208420  1  0
208421  1  0
M  CHG  8  18  -1  27  -1  55  -1 129  -1 167  -1 190   1 200  -1 212  -1
M  END
