
     RDKit          2D

377380  0  0  0  0  0  0  0  0999 V2000
  -25.7156    4.5184    0.0000 N   0  0  0  0  0  0  0  0  0  0  0  0
  -24.3933    3.8102    0.0000 C   0  0  0  0  0  0  0  0  0  0  0  0
  -24.3455    2.3110    0.0000 C   0  0  0  0  0  0  0  0  0  0  0  0
  -23.0232    1.6028    0.0000 C   0  0  0  0  0  0  0  0  0  0  0  0
  -21.7487    2.3938    0.0000 O   0  0  0  0  0  0  0  0  0  0  0  0
  -22.9754    0.1036    0.0000 N   0  0  0  0  0  0  0  0  0  0  0  0
  -21.6531   -0.6047    0.0000 C   0  0  0  0  0  0  0  0  0  0  0  0
  -22.5801   -1.7839    0.0000 C   0  0  0  0  0  0  0  0  0  0  0  0
  -23.0480   -3.2091    0.0000 O   0  0  0  0  0  0  0  0  0  0  0  0
  -24.0649   -1.5706    0.0000 C   0  0  0  0  0  0  0  0  0  0  0  0
  -20.1683   -0.8179    0.0000 C   0  0  0  0  0  0  0  0  0  0  0  0
  -19.6106   -2.2104    0.0000 O   0  0  0  0  0  0  0  0  0  0  0  0
  -19.2412    0.3613    0.0000 N   0  0  0  0  0  0  0  0  0  0  0  0
  -17.7565    0.1481    0.0000 C   0  0  0  0  0  0  0  0  0  0  0  0
  -17.8043    1.6473    0.0000 C   0  0  0  0  0  0  0  0  0  0  0  0
  -19.1266    2.3555    0.0000 C   0  0  0  0  0  0  0  0  0  0  0  0
  -19.1744    3.8547    0.0000 C   0  0  0  0  0  0  0  0  0  0  0  0
  -20.4967    4.5630    0.0000 N   0  0  0  0  0  0  0  0  0  0  0  0
  -20.5445    6.0622    0.0000 C   0  0  0  0  0  0  0  0  0  0  0  0
  -21.8668    6.7704    0.0000 N   0  0  0  0  0  0  0  0  0  0  0  0
  -19.2700    6.8532    0.0000 N   0  0  0  0  0  0  0  0  0  0  0  0
  -16.4342   -0.5602    0.0000 C   0  0  0  0  0  0  0  0  0  0  0  0
  -15.1597    0.2309    0.0000 O   0  0  0  0  0  0  0  0  0  0  0  0
  -16.3864   -2.0594    0.0000 N   0  0  0  0  0  0  0  0  0  0  0  0
  -15.0641   -2.7676    0.0000 C   0  0  0  0  0  0  0  0  0  0  0  0
  -15.9912   -3.9468    0.0000 C   0  0  0  0  0  0  0  0  0  0  0  0
  -17.4759   -3.7336    0.0000 C   0  0  0  0  0  0  0  0  0  0  0  0
  -18.4030   -4.9128    0.0000 C   0  0  0  0  0  0  0  0  0  0  0  0
  -19.8878   -4.6995    0.0000 N   0  0  0  0  0  0  0  0  0  0  0  0
  -17.8453   -6.3053    0.0000 O   0  0  0  0  0  0  0  0  0  0  0  0
  -13.5793   -2.9808    0.0000 C   0  0  0  0  0  0  0  0  0  0  0  0
  -13.1955   -4.4309    0.0000 O   0  0  0  0  0  0  0  0  0  0  0  0
  -12.6523   -1.8016    0.0000 N   0  0  0  0  0  0  0  0  0  0  0  0
  -11.1675   -2.0149    0.0000 C   0  0  0  0  0  0  0  0  0  0  0  0
  -10.3450   -3.2692    0.0000 C   0  0  0  0  0  0  0  0  0  0  0  0
   -9.1892   -4.2254    0.0000 C   0  0  0  0  0  0  0  0  0  0  0  0
   -7.8030   -4.7984    0.0000 C   0  0  0  0  0  0  0  0  0  0  0  0
   -6.3094   -4.9374    0.0000 C   0  0  0  0  0  0  0  0  0  0  0  0
  -12.1208   -3.1730    0.0000 C   0  0  0  0  0  0  0  0  0  0  0  0
  -11.5838   -0.5738    0.0000 C   0  0  0  0  0  0  0  0  0  0  0  0
  -13.0837   -0.5879    0.0000 O   0  0  0  0  0  0  0  0  0  0  0  0
  -11.5568    0.9260    0.0000 N   0  0  0  0  0  0  0  0  0  0  0  0
  -11.0890    2.3511    0.0000 C   0  0  0  0  0  0  0  0  0  0  0  0
  -12.5805    2.1914    0.0000 C   0  0  0  0  0  0  0  0  0  0  0  0
  -13.4645    3.4032    0.0000 C   0  0  0  0  0  0  0  0  0  0  0  0
  -14.9560    3.2435    0.0000 C   0  0  0  0  0  0  0  0  0  0  0  0
  -15.8400    4.4553    0.0000 N   0  0  0  0  0  0  0  0  0  0  0  0
  -17.3315    4.2956    0.0000 C   0  0  0  0  0  0  0  0  0  0  0  0
  -17.8961    5.6853    0.0000 N   0  0  0  0  0  0  0  0  0  0  0  0
  -17.5890    2.8178    0.0000 N   0  0  0  0  0  0  0  0  0  0  0  0
  -10.2219    3.5751    0.0000 C   0  0  0  0  0  0  0  0  0  0  0  0
  -11.3029    4.6150    0.0000 O   0  0  0  0  0  0  0  0  0  0  0  0
   -9.0325    4.4891    0.0000 N   0  0  0  0  0  0  0  0  0  0  0  0
   -7.6265    5.0119    0.0000 C   0  0  0  0  0  0  0  0  0  0  0  0
   -8.6813    6.0784    0.0000 C   0  0  0  0  0  0  0  0  0  0  0  0
   -8.2851    7.5251    0.0000 C   0  0  0  0  0  0  0  0  0  0  0  0
   -9.3399    8.5916    0.0000 C   0  0  0  0  0  0  0  0  0  0  0  0
   -8.9437   10.0383    0.0000 N   0  0  0  0  0  0  0  0  0  0  0  0
   -9.9985   11.1048    0.0000 C   0  0  0  0  0  0  0  0  0  0  0  0
   -9.6023   12.5516    0.0000 N   0  0  0  0  0  0  0  0  0  0  0  0
  -11.4495   10.7246    0.0000 N   0  0  0  0  0  0  0  0  0  0  0  0
   -6.1290    5.0971    0.0000 C   0  0  0  0  0  0  0  0  0  0  0  0
   -5.9900    6.5906    0.0000 O   0  0  0  0  0  0  0  0  0  0  0  0
   -4.6728    4.7371    0.0000 N   0  0  0  0  0  0  0  0  0  0  0  0
   -3.3875    3.9638    0.0000 C   0  0  0  0  0  0  0  0  0  0  0  0
   -3.2113    5.4534    0.0000 C   0  0  0  0  0  0  0  0  0  0  0  0
   -2.3871    2.8461    0.0000 C   0  0  0  0  0  0  0  0  0  0  0  0
   -1.6659    4.1613    0.0000 O   0  0  0  0  0  0  0  0  0  0  0  0
   -1.7607    1.4831    0.0000 N   0  0  0  0  0  0  0  0  0  0  0  0
   -1.5639   -0.0039    0.0000 C   0  0  0  0  0  0  0  0  0  0  0  0
   -1.8141   -1.4829    0.0000 C   0  0  0  0  0  0  0  0  0  0  0  0
   -2.4891   -2.8224    0.0000 C   0  0  0  0  0  0  0  0  0  0  0  0
   -3.5290   -3.9035    0.0000 C   0  0  0  0  0  0  0  0  0  0  0  0
   -4.8413   -4.6300    0.0000 C   0  0  0  0  0  0  0  0  0  0  0  0
   -0.7096    1.3417    0.0000 C   0  0  0  0  0  0  0  0  0  0  0  0
   -0.3010    2.6461    0.0000 C   0  0  0  0  0  0  0  0  0  0  0  0
    0.3471    3.8496    0.0000 C   0  0  0  0  0  0  0  0  0  0  0  0
    1.2113    4.9087    0.0000 C   0  0  0  0  0  0  0  0  0  0  0  0
   -0.7585   -1.3793    0.0000 C   0  0  0  0  0  0  0  0  0  0  0  0
   -2.9259   -1.7568    0.0000 O   0  0  0  0  0  0  0  0  0  0  0  0
   -0.3971   -2.6976    0.0000 N   0  0  0  0  0  0  0  0  0  0  0  0
    0.2073   -3.9236    0.0000 C   0  0  0  0  0  0  0  0  0  0  0  0
   -1.0572   -5.6340    0.0000 C   0  0  0  0  0  0  0  0  0  0  0  0
   -0.2290   -6.8846    0.0000 C   0  0  0  0  0  0  0  0  0  0  0  0
   -0.8979   -8.2272    0.0000 C   0  0  0  0  0  0  0  0  0  0  0  0
   -0.0697   -9.4778    0.0000 N   0  0  0  0  0  0  0  0  0  0  0  0
   -0.7386  -10.8204    0.0000 C   0  0  0  0  0  0  0  0  0  0  0  0
   -0.2376  -12.2342    0.0000 N   0  0  0  0  0  0  0  0  0  0  0  0
   -2.2358  -10.9124    0.0000 N   0  0  0  0  0  0  0  0  0  0  0  0
    1.0328   -5.0131    0.0000 C   0  0  0  0  0  0  0  0  0  0  0  0
    0.1532   -6.1457    0.0000 O   0  0  0  0  0  0  0  0  0  0  0  0
    2.0496   -5.9267    0.0000 N   0  0  0  0  0  0  0  0  0  0  0  0
    3.2209   -6.6313    0.0000 C   0  0  0  0  0  0  0  0  0  0  0  0
    3.0818   -8.7539    0.0000 C   0  0  0  0  0  0  0  0  0  0  0  0
    1.8721   -9.6407    0.0000 C   0  0  0  0  0  0  0  0  0  0  0  0
    2.0352  -11.1318    0.0000 C   0  0  0  0  0  0  0  0  0  0  0  0
    0.8254  -12.0186    0.0000 N   0  0  0  0  0  0  0  0  0  0  0  0
    0.9885  -13.5097    0.0000 C   0  0  0  0  0  0  0  0  0  0  0  0
   -0.2213  -14.3965    0.0000 N   0  0  0  0  0  0  0  0  0  0  0  0
    2.3614  -14.1140    0.0000 N   0  0  0  0  0  0  0  0  0  0  0  0
    4.5044   -7.1016    0.0000 C   0  0  0  0  0  0  0  0  0  0  0  0
    4.1271   -9.2654    0.0000 O   0  0  0  0  0  0  0  0  0  0  0  0
    5.8537   -7.3204    0.0000 N   0  0  0  0  0  0  0  0  0  0  0  0
    7.2200   -7.2799    0.0000 C   0  0  0  0  0  0  0  0  0  0  0  0
    8.2506   -9.1407    0.0000 C   0  0  0  0  0  0  0  0  0  0  0  0
    7.7123  -10.5408    0.0000 C   0  0  0  0  0  0  0  0  0  0  0  0
    8.6556  -11.7070    0.0000 C   0  0  0  0  0  0  0  0  0  0  0  0
    8.1173  -13.1071    0.0000 N   0  0  0  0  0  0  0  0  0  0  0  0
    9.0607  -14.2733    0.0000 C   0  0  0  0  0  0  0  0  0  0  0  0
    8.5224  -15.6734    0.0000 N   0  0  0  0  0  0  0  0  0  0  0  0
   10.5423  -14.0394    0.0000 N   0  0  0  0  0  0  0  0  0  0  0  0
    8.5540   -6.9816    0.0000 C   0  0  0  0  0  0  0  0  0  0  0  0
    9.4064   -9.0059    0.0000 O   0  0  0  0  0  0  0  0  0  0  0  0
    9.8074   -6.4362    0.0000 N   0  0  0  0  0  0  0  0  0  0  0  0
   10.9350   -5.6635    0.0000 C   0  0  0  0  0  0  0  0  0  0  0  0
   12.8079   -6.6717    0.0000 C   0  0  0  0  0  0  0  0  0  0  0  0
   13.1120   -8.1406    0.0000 C   0  0  0  0  0  0  0  0  0  0  0  0
   12.1024   -9.2500    0.0000 C   0  0  0  0  0  0  0  0  0  0  0  0
   12.8455  -10.5530    0.0000 N   0  0  0  0  0  0  0  0  0  0  0  0
   14.3144  -10.2489    0.0000 C   0  0  0  0  0  0  0  0  0  0  0  0
   15.5232  -11.1369    0.0000 C   0  0  0  0  0  0  0  0  0  0  0  0
   16.8967  -10.5341    0.0000 C   0  0  0  0  0  0  0  0  0  0  0  0
   17.0614   -9.0432    0.0000 C   0  0  0  0  0  0  0  0  0  0  0  0
   15.8526   -8.1551    0.0000 C   0  0  0  0  0  0  0  0  0  0  0  0
   14.4791   -8.7579    0.0000 C   0  0  0  0  0  0  0  0  0  0  0  0
   11.8959   -4.6913    0.0000 C   0  0  0  0  0  0  0  0  0  0  0  0
   13.7074   -5.9334    0.0000 O   0  0  0  0  0  0  0  0  0  0  0  0
   12.6555   -3.5549    0.0000 N   0  0  0  0  0  0  0  0  0  0  0  0
   13.1862   -2.2952    0.0000 C   0  0  0  0  0  0  0  0  0  0  0  0
   15.3069   -2.1308    0.0000 C   0  0  0  0  0  0  0  0  0  0  0  0
   16.3569   -3.2021    0.0000 C   0  0  0  0  0  0  0  0  0  0  0  0
   17.8096   -2.8284    0.0000 C   0  0  0  0  0  0  0  0  0  0  0  0
   18.8595   -3.8997    0.0000 N   0  0  0  0  0  0  0  0  0  0  0  0
   20.3123   -3.5260    0.0000 C   0  0  0  0  0  0  0  0  0  0  0  0
   21.3622   -4.5973    0.0000 N   0  0  0  0  0  0  0  0  0  0  0  0
   20.7150   -2.0811    0.0000 N   0  0  0  0  0  0  0  0  0  0  0  0
   13.4690   -0.9578    0.0000 C   0  0  0  0  0  0  0  0  0  0  0  0
   15.6645   -1.0234    0.0000 O   0  0  0  0  0  0  0  0  0  0  0  0
   13.4936    0.4089    0.0000 N   0  0  0  0  0  0  0  0  0  0  0  0
   13.2591    1.7555    0.0000 C   0  0  0  0  0  0  0  0  0  0  0  0
   14.9543    3.0403    0.0000 C   0  0  0  0  0  0  0  0  0  0  0  0
   16.4167    2.7068    0.0000 C   0  0  0  0  0  0  0  0  0  0  0  0
   17.4368    3.8065    0.0000 C   0  0  0  0  0  0  0  0  0  0  0  0
   18.8992    3.4729    0.0000 O   0  0  0  0  0  0  0  0  0  0  0  0
   16.9944    5.2398    0.0000 O   0  0  0  0  0  0  0  0  0  0  0  0
   12.7740    3.0334    0.0000 C   0  0  0  0  0  0  0  0  0  0  0  0
   14.6563    4.1653    0.0000 O   0  0  0  0  0  0  0  0  0  0  0  0
   12.0557    4.1965    0.0000 N   0  0  0  0  0  0  0  0  0  0  0  0
   11.1304    5.2026    0.0000 C   0  0  0  0  0  0  0  0  0  0  0  0
   10.0314    6.0154    0.0000 C   0  0  0  0  0  0  0  0  0  0  0  0
    8.7984    6.6055    0.0000 C   0  0  0  0  0  0  0  0  0  0  0  0
    7.4760    6.9516    0.0000 C   0  0  0  0  0  0  0  0  0  0  0  0
    6.1120    7.0411    0.0000 C   0  0  0  0  0  0  0  0  0  0  0  0
    4.7557    6.8710    0.0000 C   0  0  0  0  0  0  0  0  0  0  0  0
    3.4562    6.4472    0.0000 C   0  0  0  0  0  0  0  0  0  0  0  0
    2.2603    5.7851    0.0000 C   0  0  0  0  0  0  0  0  0  0  0  0
   13.0384    6.1428    0.0000 C   0  0  0  0  0  0  0  0  0  0  0  0
   11.8618    7.1999    0.0000 C   0  0  0  0  0  0  0  0  0  0  0  0
   10.9828    8.4154    0.0000 O   0  0  0  0  0  0  0  0  0  0  0  0
   13.2725    7.7100    0.0000 N   0  0  0  0  0  0  0  0  0  0  0  0
   13.5361    9.1866    0.0000 C   0  0  0  0  0  0  0  0  0  0  0  0
   13.2787   10.6644    0.0000 C   0  0  0  0  0  0  0  0  0  0  0  0
   14.4298   11.6261    0.0000 C   0  0  0  0  0  0  0  0  0  0  0  0
   14.1725   13.1039    0.0000 C   0  0  0  0  0  0  0  0  0  0  0  0
   15.1978   14.1988    0.0000 N   0  0  0  0  0  0  0  0  0  0  0  0
   12.7640   13.6199    0.0000 O   0  0  0  0  0  0  0  0  0  0  0  0
   14.9467    9.6967    0.0000 C   0  0  0  0  0  0  0  0  0  0  0  0
   16.0937    8.7301    0.0000 O   0  0  0  0  0  0  0  0  0  0  0  0
   15.2103   11.1733    0.0000 N   0  0  0  0  0  0  0  0  0  0  0  0
   16.6209   11.6834    0.0000 C   0  0  0  0  0  0  0  0  0  0  0  0
   18.1209   11.6802    0.0000 C   0  0  0  0  0  0  0  0  0  0  0  0
   18.8681   10.3796    0.0000 C   0  0  0  0  0  0  0  0  0  0  0  0
   20.3681   10.3764    0.0000 C   0  0  0  0  0  0  0  0  0  0  0  0
   21.1154    9.0758    0.0000 N   0  0  0  0  0  0  0  0  0  0  0  0
   22.6154    9.0726    0.0000 C   0  0  0  0  0  0  0  0  0  0  0  0
   23.3626    7.7720    0.0000 N   0  0  0  0  0  0  0  0  0  0  0  0
   23.3681   10.3700    0.0000 N   0  0  0  0  0  0  0  0  0  0  0  0
   16.8845   13.1600    0.0000 C   0  0  0  0  0  0  0  0  0  0  0  0
   18.2224   13.8382    0.0000 O   0  0  0  0  0  0  0  0  0  0  0  0
   16.1405   13.9614    0.0000 O   0  0  0  0  0  0  0  0  0  0  0  0
  -25.7634    6.0177    0.0000 H   0  0  0  0  0  0  0  0  0  0  0  0
  -26.9900    3.7274    0.0000 H   0  0  0  0  0  0  0  0  0  0  0  0
  -23.9254    5.2354    0.0000 H   0  0  0  0  0  0  0  0  0  0  0  0
  -22.9085    3.5970    0.0000 H   0  0  0  0  0  0  0  0  0  0  0  0
  -25.8302    2.5242    0.0000 H   0  0  0  0  0  0  0  0  0  0  0  0
  -24.8133    0.8858    0.0000 H   0  0  0  0  0  0  0  0  0  0  0  0
  -23.6989   -0.2311    0.0000 H   0  0  0  0  0  0  0  0  0  0  0  0
  -21.1852    0.8205    0.0000 H   0  0  0  0  0  0  0  0  0  0  0  0
  -21.2579   -2.4921    0.0000 H   0  0  0  0  0  0  0  0  0  0  0  0
  -24.4677   -3.6932    0.0000 H   0  0  0  0  0  0  0  0  0  0  0  0
  -25.1288   -2.6280    0.0000 H   0  0  0  0  0  0  0  0  0  0  0  0
  -25.3872   -0.8624    0.0000 H   0  0  0  0  0  0  0  0  0  0  0  0
  -24.1087   -0.6860    0.0000 H   0  0  0  0  0  0  0  0  0  0  0  0
  -19.9645    1.6754    0.0000 H   0  0  0  0  0  0  0  0  0  0  0  0
  -18.2243   -1.2771    0.0000 H   0  0  0  0  0  0  0  0  0  0  0  0
  -17.0055    2.9169    0.0000 H   0  0  0  0  0  0  0  0  0  0  0  0
  -16.3566    1.2546    0.0000 H   0  0  0  0  0  0  0  0  0  0  0  0
  -20.6114    2.5688    0.0000 H   0  0  0  0  0  0  0  0  0  0  0  0
  -20.0742    1.1927    0.0000 H   0  0  0  0  0  0  0  0  0  0  0  0
  -18.8838    5.3263    0.0000 H   0  0  0  0  0  0  0  0  0  0  0  0
  -17.7854    3.2886    0.0000 H   0  0  0  0  0  0  0  0  0  0  0  0
  -21.7712    3.7719    0.0000 H   0  0  0  0  0  0  0  0  0  0  0  0
  -21.9146    8.2696    0.0000 H   0  0  0  0  0  0  0  0  0  0  0  0
  -23.1413    5.9794    0.0000 H   0  0  0  0  0  0  0  0  0  0  0  0
  -19.3179    8.3525    0.0000 H   0  0  0  0  0  0  0  0  0  0  0  0
  -17.8157    6.4860    0.0000 H   0  0  0  0  0  0  0  0  0  0  0  0
  -17.7478   -2.6892    0.0000 H   0  0  0  0  0  0  0  0  0  0  0  0
  -14.5963   -1.3424    0.0000 H   0  0  0  0  0  0  0  0  0  0  0  0
  -16.4590   -5.3720    0.0000 H   0  0  0  0  0  0  0  0  0  0  0  0
  -14.6689   -4.6550    0.0000 H   0  0  0  0  0  0  0  0  0  0  0  0
  -18.7982   -3.0254    0.0000 H   0  0  0  0  0  0  0  0  0  0  0  0
  -17.5500   -2.2354    0.0000 H   0  0  0  0  0  0  0  0  0  0  0  0
  -20.8148   -5.8788    0.0000 H   0  0  0  0  0  0  0  0  0  0  0  0
  -20.4455   -3.3071    0.0000 H   0  0  0  0  0  0  0  0  0  0  0  0
  -13.3756   -0.4875    0.0000 H   0  0  0  0  0  0  0  0  0  0  0  0
  -10.7412   -4.7160    0.0000 H   0  0  0  0  0  0  0  0  0  0  0  0
  -11.7871   -3.6820    0.0000 H   0  0  0  0  0  0  0  0  0  0  0  0
   -9.3245   -5.7193    0.0000 H   0  0  0  0  0  0  0  0  0  0  0  0
  -10.4456   -5.0449    0.0000 H   0  0  0  0  0  0  0  0  0  0  0  0
   -7.3154   -6.2170    0.0000 H   0  0  0  0  0  0  0  0  0  0  0  0
   -8.7620   -5.9518    0.0000 H   0  0  0  0  0  0  0  0  0  0  0  0
   -6.2243   -6.4350    0.0000 H   0  0  0  0  0  0  0  0  0  0  0  0
  -13.4206   -3.5417    0.0000 H   0  0  0  0  0  0  0  0  0  0  0  0
  -12.1032   -4.7549    0.0000 H   0  0  0  0  0  0  0  0  0  0  0  0
  -10.9322   -4.3584    0.0000 H   0  0  0  0  0  0  0  0  0  0  0  0
  -13.0358    1.1762    0.0000 H   0  0  0  0  0  0  0  0  0  0  0  0
  -11.6846    3.7278    0.0000 H   0  0  0  0  0  0  0  0  0  0  0  0
  -13.8368    1.3720    0.0000 H   0  0  0  0  0  0  0  0  0  0  0  0
  -12.5252    0.6924    0.0000 H   0  0  0  0  0  0  0  0  0  0  0  0
  -13.8808    4.8443    0.0000 H   0  0  0  0  0  0  0  0  0  0  0  0
  -12.2081    4.2227    0.0000 H   0  0  0  0  0  0  0  0  0  0  0  0
  -16.3029    2.5833    0.0000 H   0  0  0  0  0  0  0  0  0  0  0  0
  -14.7185    1.7624    0.0000 H   0  0  0  0  0  0  0  0  0  0  0  0
  -15.2326    5.8268    0.0000 H   0  0  0  0  0  0  0  0  0  0  0  0
  -19.7070    5.3476    0.0000 H   0  0  0  0  0  0  0  0  0  0  0  0
  -17.4648    6.8349    0.0000 H   0  0  0  0  0  0  0  0  0  0  0  0
  -19.3886    3.2115    0.0000 H   0  0  0  0  0  0  0  0  0  0  0  0
  -16.6941    1.9772    0.0000 H   0  0  0  0  0  0  0  0  0  0  0  0
   -9.7590    5.8014    0.0000 H   0  0  0  0  0  0  0  0  0  0  0  0
   -6.9216    6.3359    0.0000 H   0  0  0  0  0  0  0  0  0  0  0  0
  -10.1053    6.5497    0.0000 H   0  0  0  0  0  0  0  0  0  0  0  0
   -9.8189    5.1006    0.0000 H   0  0  0  0  0  0  0  0  0  0  0  0
   -7.4180    8.7491    0.0000 H   0  0  0  0  0  0  0  0  0  0  0  0
   -6.8611    7.0538    0.0000 H   0  0  0  0  0  0  0  0  0  0  0  0
  -10.6958    9.2330    0.0000 H   0  0  0  0  0  0  0  0  0  0  0  0
  -10.3498    7.4825    0.0000 H   0  0  0  0  0  0  0  0  0  0  0  0
   -7.4927   10.4186    0.0000 H   0  0  0  0  0  0  0  0  0  0  0  0
  -10.6571   13.6181    0.0000 H   0  0  0  0  0  0  0  0  0  0  0  0
   -8.1513   12.9318    0.0000 H   0  0  0  0  0  0  0  0  0  0  0  0
  -12.5043   11.7911    0.0000 H   0  0  0  0  0  0  0  0  0  0  0  0
  -11.8457    9.2779    0.0000 H   0  0  0  0  0  0  0  0  0  0  0  0
   -4.2730    6.1828    0.0000 H   0  0  0  0  0  0  0  0  0  0  0  0
   -2.0230    4.5869    0.0000 H   0  0  0  0  0  0  0  0  0  0  0  0
   -4.2949    6.4906    0.0000 H   0  0  0  0  0  0  0  0  0  0  0  0
   -2.5363    6.7930    0.0000 H   0  0  0  0  0  0  0  0  0  0  0  0
   -1.7329    5.1996    0.0000 H   0  0  0  0  0  0  0  0  0  0  0  0
   -0.3196    1.8994    0.0000 H   0  0  0  0  0  0  0  0  0  0  0  0
   -0.3631   -1.1027    0.0000 H   0  0  0  0  0  0  0  0  0  0  0  0
   -1.0199   -2.7554    0.0000 H   0  0  0  0  0  0  0  0  0  0  0  0
   -1.1131   -3.4197    0.0000 H   0  0  0  0  0  0  0  0  0  0  0  0
   -2.2849   -4.3085    0.0000 H   0  0  0  0  0  0  0  0  0  0  0  0
   -2.3902   -4.8798    0.0000 H   0  0  0  0  0  0  0  0  0  0  0  0
   -3.4065   -5.3985    0.0000 H   0  0  0  0  0  0  0  0  0  0  0  0
   -4.3185   -6.0359    0.0000 H   0  0  0  0  0  0  0  0  0  0  0  0
   -2.8051    0.9765    0.0000 H   0  0  0  0  0  0  0  0  0  0  0  0
   -2.3433    2.6482    0.0000 H   0  0  0  0  0  0  0  0  0  0  0  0
   -2.4131    3.2307    0.0000 H   0  0  0  0  0  0  0  0  0  0  0  0
   -1.4917    4.3152    0.0000 H   0  0  0  0  0  0  0  0  0  0  0  0
   -1.6771    4.6506    0.0000 H   0  0  0  0  0  0  0  0  0  0  0  0
   -0.8551    5.6044    0.0000 H   0  0  0  0  0  0  0  0  0  0  0  0
   -0.3534    6.4553    0.0000 H   0  0  0  0  0  0  0  0  0  0  0  0
   -2.1699   -3.9457    0.0000 H   0  0  0  0  0  0  0  0  0  0  0  0
   -1.8775   -4.4711    0.0000 H   0  0  0  0  0  0  0  0  0  0  0  0
   -2.2628   -6.5265    0.0000 H   0  0  0  0  0  0  0  0  0  0  0  0
   -2.5028   -5.2336    0.0000 H   0  0  0  0  0  0  0  0  0  0  0  0
    0.8593   -7.9169    0.0000 H   0  0  0  0  0  0  0  0  0  0  0  0
    1.0764   -6.1457    0.0000 H   0  0  0  0  0  0  0  0  0  0  0  0
   -1.9857   -9.2600    0.0000 H   0  0  0  0  0  0  0  0  0  0  0  0
   -2.2037   -7.4889    0.0000 H   0  0  0  0  0  0  0  0  0  0  0  0
    1.4053   -9.7509    0.0000 H   0  0  0  0  0  0  0  0  0  0  0  0
   -0.5793  -13.4136    0.0000 H   0  0  0  0  0  0  0  0  0  0  0  0
    1.5943  -12.4281    0.0000 H   0  0  0  0  0  0  0  0  0  0  0  0
   -2.9047  -12.2549    0.0000 H   0  0  0  0  0  0  0  0  0  0  0  0
   -3.0640   -9.6617    0.0000 H   0  0  0  0  0  0  0  0  0  0  0  0
    0.7415   -7.6955    0.0000 H   0  0  0  0  0  0  0  0  0  0  0  0
    1.6551   -8.0710    0.0000 H   0  0  0  0  0  0  0  0  0  0  0  0
    3.7451  -10.0993    0.0000 H   0  0  0  0  0  0  0  0  0  0  0  0
    4.5807   -8.6952    0.0000 H   0  0  0  0  0  0  0  0  0  0  0  0
    0.5762  -10.3962    0.0000 H   0  0  0  0  0  0  0  0  0  0  0  0
    1.0498   -8.3861    0.0000 H   0  0  0  0  0  0  0  0  0  0  0  0
    2.6984  -12.4772    0.0000 H   0  0  0  0  0  0  0  0  0  0  0  0
    3.5157  -10.8909    0.0000 H   0  0  0  0  0  0  0  0  0  0  0  0
   -0.6529  -11.7644    0.0000 H   0  0  0  0  0  0  0  0  0  0  0  0
   -0.0582  -15.8876    0.0000 H   0  0  0  0  0  0  0  0  0  0  0  0
   -1.5942  -13.7922    0.0000 H   0  0  0  0  0  0  0  0  0  0  0  0
    2.5245  -15.6051    0.0000 H   0  0  0  0  0  0  0  0  0  0  0  0
    3.5711  -13.2272    0.0000 H   0  0  0  0  0  0  0  0  0  0  0  0
    5.5278   -9.4925    0.0000 H   0  0  0  0  0  0  0  0  0  0  0  0
    6.5197   -9.2511    0.0000 H   0  0  0  0  0  0  0  0  0  0  0  0
    9.5359   -9.9139    0.0000 H   0  0  0  0  0  0  0  0  0  0  0  0
    9.4798   -8.2811    0.0000 H   0  0  0  0  0  0  0  0  0  0  0  0
    6.7276  -11.6723    0.0000 H   0  0  0  0  0  0  0  0  0  0  0  0
    6.2780  -10.1015    0.0000 H   0  0  0  0  0  0  0  0  0  0  0  0
    9.9410  -12.4802    0.0000 H   0  0  0  0  0  0  0  0  0  0  0  0
    9.7709  -10.7039    0.0000 H   0  0  0  0  0  0  0  0  0  0  0  0
    6.6357  -13.3410    0.0000 H   0  0  0  0  0  0  0  0  0  0  0  0
    9.4658  -16.8396    0.0000 H   0  0  0  0  0  0  0  0  0  0  0  0
    7.0407  -15.9073    0.0000 H   0  0  0  0  0  0  0  0  0  0  0  0
   11.4857  -15.2057    0.0000 H   0  0  0  0  0  0  0  0  0  0  0  0
   11.0806  -12.6394    0.0000 H   0  0  0  0  0  0  0  0  0  0  0  0
   10.7076   -8.4397    0.0000 H   0  0  0  0  0  0  0  0  0  0  0  0
   11.5941   -7.6858    0.0000 H   0  0  0  0  0  0  0  0  0  0  0  0
   14.3015   -6.8104    0.0000 H   0  0  0  0  0  0  0  0  0  0  0  0
   13.3772   -5.2840    0.0000 H   0  0  0  0  0  0  0  0  0  0  0  0
   10.6025   -9.2683    0.0000 H   0  0  0  0  0  0  0  0  0  0  0  0
   12.2282  -11.9200    0.0000 H   0  0  0  0  0  0  0  0  0  0  0  0
   15.3585  -12.6279    0.0000 H   0  0  0  0  0  0  0  0  0  0  0  0
   18.1056  -11.4222    0.0000 H   0  0  0  0  0  0  0  0  0  0  0  0
   18.4350   -8.4403    0.0000 H   0  0  0  0  0  0  0  0  0  0  0  0
   16.0173   -6.6641    0.0000 H   0  0  0  0  0  0  0  0  0  0  0  0
   14.4959   -4.7536    0.0000 H   0  0  0  0  0  0  0  0  0  0  0  0
   14.6884   -3.7511    0.0000 H   0  0  0  0  0  0  0  0  0  0  0  0
   16.5442   -1.2828    0.0000 H   0  0  0  0  0  0  0  0  0  0  0  0
   15.0356   -0.6556    0.0000 H   0  0  0  0  0  0  0  0  0  0  0  0
   16.9771   -4.5678    0.0000 H   0  0  0  0  0  0  0  0  0  0  0  0
   15.3615   -4.3242    0.0000 H   0  0  0  0  0  0  0  0  0  0  0  0
   19.0469   -1.9805    0.0000 H   0  0  0  0  0  0  0  0  0  0  0  0
   17.3605   -1.3972    0.0000 H   0  0  0  0  0  0  0  0  0  0  0  0
   18.4568   -5.3446    0.0000 H   0  0  0  0  0  0  0  0  0  0  0  0
   22.8149   -4.2237    0.0000 H   0  0  0  0  0  0  0  0  0  0  0  0
   20.9594   -6.0422    0.0000 H   0  0  0  0  0  0  0  0  0  0  0  0
   22.1678   -1.7075    0.0000 H   0  0  0  0  0  0  0  0  0  0  0  0
   19.6651   -1.0099    0.0000 H   0  0  0  0  0  0  0  0  0  0  0  0
   15.6900    0.3954    0.0000 H   0  0  0  0  0  0  0  0  0  0  0  0
   15.3099    1.3428    0.0000 H   0  0  0  0  0  0  0  0  0  0  0  0
   15.7009    4.3413    0.0000 H   0  0  0  0  0  0  0  0  0  0  0  0
   13.9284    4.1347    0.0000 H   0  0  0  0  0  0  0  0  0  0  0  0
   17.6769    1.8931    0.0000 H   0  0  0  0  0  0  0  0  0  0  0  0
   16.1860    1.2246    0.0000 H   0  0  0  0  0  0  0  0  0  0  0  0
   13.9107    5.3726    0.0000 H   0  0  0  0  0  0  0  0  0  0  0  0
   10.3716    8.1150    0.0000 H   0  0  0  0  0  0  0  0  0  0  0  0
   11.5216    7.6023    0.0000 H   0  0  0  0  0  0  0  0  0  0  0  0
    8.9164    8.7577    0.0000 H   0  0  0  0  0  0  0  0  0  0  0  0
    9.9614    8.4458    0.0000 H   0  0  0  0  0  0  0  0  0  0  0  0
    7.1846    9.0872    0.0000 H   0  0  0  0  0  0  0  0  0  0  0  0
    8.4275    8.8857    0.0000 H   0  0  0  0  0  0  0  0  0  0  0  0
    5.4217    9.0831    0.0000 H   0  0  0  0  0  0  0  0  0  0  0  0
    6.6803    9.1204    0.0000 H   0  0  0  0  0  0  0  0  0  0  0  0
    3.6914    8.7454    0.0000 H   0  0  0  0  0  0  0  0  0  0  0  0
    4.9202    9.0202    0.0000 H   0  0  0  0  0  0  0  0  0  0  0  0
    1.9432    7.9423    0.0000 H   0  0  0  0  0  0  0  0  0  0  0  0
    3.2109    8.5887    0.0000 H   0  0  0  0  0  0  0  0  0  0  0  0
    1.0166    7.5999    0.0000 H   0  0  0  0  0  0  0  0  0  0  0  0
   13.7370    7.4702    0.0000 H   0  0  0  0  0  0  0  0  0  0  0  0
   14.5351    6.0445    0.0000 H   0  0  0  0  0  0  0  0  0  0  0  0
   13.5574    4.7355    0.0000 H   0  0  0  0  0  0  0  0  0  0  0  0
   14.5288    6.8904    0.0000 H   0  0  0  0  0  0  0  0  0  0  0  0
   12.0361    9.1898    0.0000 H   0  0  0  0  0  0  0  0  0  0  0  0
   12.5315   11.9650    0.0000 H   0  0  0  0  0  0  0  0  0  0  0  0
   11.8681   10.1543    0.0000 H   0  0  0  0  0  0  0  0  0  0  0  0
   15.8404   12.1362    0.0000 H   0  0  0  0  0  0  0  0  0  0  0  0
   15.7003   10.8287    0.0000 H   0  0  0  0  0  0  0  0  0  0  0  0
   15.0662   15.5434    0.0000 H   0  0  0  0  0  0  0  0  0  0  0  0
   16.8435   13.9402    0.0000 H   0  0  0  0  0  0  0  0  0  0  0  0
   14.3312   12.3888    0.0000 H   0  0  0  0  0  0  0  0  0  0  0  0
   16.6962   10.1853    0.0000 H   0  0  0  0  0  0  0  0  0  0  0  0
   19.4588   12.3584    0.0000 H   0  0  0  0  0  0  0  0  0  0  0  0
   18.0456   13.1783    0.0000 H   0  0  0  0  0  0  0  0  0  0  0  0
   19.1255    8.9018    0.0000 H   0  0  0  0  0  0  0  0  0  0  0  0
   17.5302    9.7014    0.0000 H   0  0  0  0  0  0  0  0  0  0  0  0
   21.7788   10.8864    0.0000 H   0  0  0  0  0  0  0  0  0  0  0  0
   20.2929   11.8745    0.0000 H   0  0  0  0  0  0  0  0  0  0  0  0
   20.3626    7.7783    0.0000 H   0  0  0  0  0  0  0  0  0  0  0  0
   24.8626    7.7688    0.0000 H   0  0  0  0  0  0  0  0  0  0  0  0
   22.6099    6.4745    0.0000 H   0  0  0  0  0  0  0  0  0  0  0  0
   24.8681   10.3669    0.0000 H   0  0  0  0  0  0  0  0  0  0  0  0
   22.6209   11.6707    0.0000 H   0  0  0  0  0  0  0  0  0  0  0  0
  1  2  1  0
  2  3  1  0
  3  4  1  0
  4  5  2  0
  4  6  1  0
  6  7  1  0
  7  8  1  0
  8  9  1  0
  8 10  1  0
  7 11  1  0
 11 12  2  0
 11 13  1  0
 13 14  1  0
 14 15  1  0
 15 16  1  0
 16 17  1  0
 17 18  1  0
 18 19  1  0
 19 20  2  3
 19 21  1  0
 14 22  1  0
 22 23  2  0
 22 24  1  0
 24 25  1  0
 25 26  1  0
 26 27  1  0
 27 28  1  0
 28 29  1  0
 28 30  2  0
 25 31  1  0
 31 32  2  0
 31 33  1  0
 34 33  1  6
 34 35  1  0
 35 36  1  0
 36 37  1  0
 37 38  1  0
 34 39  1  0
 34 40  1  0
 40 41  2  0
 40 42  1  0
 42 43  1  0
 43 44  1  0
 44 45  1  0
 45 46  1  0
 46 47  1  0
 47 48  1  0
 48 49  2  3
 48 50  1  0
 43 51  1  0
 51 52  2  0
 51 53  1  0
 53 54  1  0
 54 55  1  0
 55 56  1  0
 56 57  1  0
 57 58  1  0
 58 59  1  0
 59 60  2  3
 59 61  1  0
 54 62  1  0
 62 63  2  0
 62 64  1  0
 64 65  1  0
 65 66  1  0
 65 67  1  0
 67 68  2  0
 67 69  1  0
 69 70  1  0
 70 71  1  0
 71 72  1  0
 72 73  1  0
 73 74  1  0
 70 75  1  0
 75 76  1  0
 76 77  1  0
 77 78  1  0
 70 79  1  0
 79 80  2  0
 79 81  1  0
 81 82  1  0
 82 83  1  0
 83 84  1  0
 84 85  1  0
 85 86  1  0
 86 87  1  0
 87 88  2  3
 87 89  1  0
 82 90  1  0
 90 91  2  0
 90 92  1  0
 92 93  1  0
 93 94  1  0
 94 95  1  0
 95 96  1  0
 96 97  1  0
 97 98  1  0
 98 99  2  3
 98100  1  0
 93101  1  0
101102  2  0
101103  1  0
103104  1  0
104105  1  0
105106  1  0
106107  1  0
107108  1  0
108109  1  0
109110  2  3
109111  1  0
104112  1  0
112113  2  0
112114  1  0
114115  1  0
115116  1  0
116117  1  0
117118  2  0
118119  1  0
119120  1  0
120121  2  0
121122  1  0
122123  2  0
123124  1  0
124125  2  0
115126  1  0
126127  2  0
126128  1  0
128129  1  0
129130  1  0
130131  1  0
131132  1  0
132133  1  0
133134  1  0
134135  2  3
134136  1  0
129137  1  0
137138  2  0
137139  1  0
139140  1  0
140141  1  0
141142  1  0
142143  1  0
143144  2  0
143145  1  0
140146  1  0
146147  2  0
146148  1  0
148149  1  0
149150  1  0
150151  1  0
151152  1  0
152153  1  0
153154  1  0
154155  1  0
155156  1  0
149157  1  0
149158  1  1
158159  2  0
158160  1  0
160161  1  0
161162  1  0
162163  1  0
163164  1  0
164165  1  0
164166  2  0
161167  1  0
167168  2  0
167169  1  0
169170  1  0
170171  1  0
171172  1  0
172173  1  0
173174  1  0
174175  1  0
175176  2  3
175177  1  0
170178  1  0
178179  2  0
178180  1  0
125117  1  0
125120  1  0
 38 74  2  0
 78156  2  0
  1181  1  0
  1182  1  0
  2183  1  0
  2184  1  0
  3185  1  0
  3186  1  0
  6187  1  0
  7188  1  6
  8189  1  1
  9190  1  0
 10191  1  0
 10192  1  0
 10193  1  0
 13194  1  0
 14195  1  1
 15196  1  0
 15197  1  0
 16198  1  0
 16199  1  0
 17200  1  0
 17201  1  0
 18202  1  0
 20203  1  0
 20204  1  0
 21205  1  0
 21206  1  0
 24207  1  0
 25208  1  6
 26209  1  0
 26210  1  0
 27211  1  0
 27212  1  0
 29213  1  0
 29214  1  0
 33215  1  0
 35216  1  0
 35217  1  0
 36218  1  0
 36219  1  0
 37220  1  0
 37221  1  0
 38222  1  0
 39223  1  0
 39224  1  0
 39225  1  0
 42226  1  0
 43227  1  1
 44228  1  0
 44229  1  0
 45230  1  0
 45231  1  0
 46232  1  0
 46233  1  0
 47234  1  0
 49235  1  0
 49236  1  0
 50237  1  0
 50238  1  0
 53239  1  0
 54240  1  1
 55241  1  0
 55242  1  0
 56243  1  0
 56244  1  0
 57245  1  0
 57246  1  0
 58247  1  0
 60248  1  0
 60249  1  0
 61250  1  0
 61251  1  0
 64252  1  0
 65253  1  1
 66254  1  0
 66255  1  0
 66256  1  0
 69257  1  0
 71258  1  0
 71259  1  0
 72260  1  0
 72261  1  0
 73262  1  0
 73263  1  0
 74264  1  0
 75265  1  0
 75266  1  0
 76267  1  0
 76268  1  0
 77269  1  0
 77270  1  0
 78271  1  0
 81272  1  0
 82273  1  6
 83274  1  0
 83275  1  0
 84276  1  0
 84277  1  0
 85278  1  0
 85279  1  0
 86280  1  0
 88281  1  0
 88282  1  0
 89283  1  0
 89284  1  0
 92285  1  0
 93286  1  6
 94287  1  0
 94288  1  0
 95289  1  0
 95290  1  0
 96291  1  0
 96292  1  0
 97293  1  0
 99294  1  0
 99295  1  0
100296  1  0
100297  1  0
103298  1  0
104299  1  6
105300  1  0
105301  1  0
106302  1  0
106303  1  0
107304  1  0
107305  1  0
108306  1  0
110307  1  0
110308  1  0
111309  1  0
111310  1  0
114311  1  0
115312  1  6
116313  1  0
116314  1  0
118315  1  0
119316  1  0
121317  1  0
122318  1  0
123319  1  0
124320  1  0
128321  1  0
129322  1  6
130323  1  0
130324  1  0
131325  1  0
131326  1  0
132327  1  0
132328  1  0
133329  1  0
135330  1  0
135331  1  0
136332  1  0
136333  1  0
139334  1  0
140335  1  6
141336  1  0
141337  1  0
142338  1  0
142339  1  0
148340  1  0
150341  1  0
150342  1  0
151343  1  0
151344  1  0
152345  1  0
152346  1  0
153347  1  0
153348  1  0
154349  1  0
154350  1  0
155351  1  0
155352  1  0
156353  1  0
157354  1  0
157355  1  0
157356  1  0
160357  1  0
161358  1  1
162359  1  0
162360  1  0
163361  1  0
163362  1  0
165363  1  0
165364  1  0
169365  1  0
170366  1  6
171367  1  0
171368  1  0
172369  1  0
172370  1  0
173371  1  0
173372  1  0
174373  1  0
176374  1  0
176375  1  0
177376  1  0
177377  1  0
M  CHG  8  20   1  49   1  60   1  88   1  99   1 110   1 135   1 145  -1
M  CHG  2 176   1 180  -1
M  END
