
     RDKit          2D

220227  0  0  0  0  0  0  0  0999 V2000
   14.8724   -0.7029    0.0000 C   0  0  0  0  0  0  0  0  0  0  0  0
   16.2334   -0.0724    0.0000 N   0  0  0  0  0  0  0  0  0  0  0  0
   17.4600   -0.9357    0.0000 C   0  0  0  0  0  0  0  0  0  0  0  0
   17.3256   -2.4297    0.0000 C   0  0  0  0  0  0  0  0  0  0  0  0
   18.5522   -3.2931    0.0000 C   0  0  0  0  0  0  0  0  0  0  0  0
   19.9132   -2.6625    0.0000 C   0  0  0  0  0  0  0  0  0  0  0  0
   20.0476   -1.1685    0.0000 C   0  0  0  0  0  0  0  0  0  0  0  0
   18.8210   -0.3052    0.0000 C   0  0  0  0  0  0  0  0  0  0  0  0
   21.5100   -0.8347    0.0000 C   0  0  0  0  0  0  0  0  0  0  0  0
   22.2794   -2.1223    0.0000 O   0  0  0  0  0  0  0  0  0  0  0  0
   21.2926   -3.2520    0.0000 C   0  0  0  0  0  0  0  0  0  0  0  0
   21.6264   -4.7144    0.0000 O   0  0  0  0  0  0  0  0  0  0  0  0
   22.9993   -0.6556    0.0000 C   0  0  0  0  0  0  0  0  0  0  0  0
   23.5888    0.7238    0.0000 C   0  0  0  0  0  0  0  0  0  0  0  0
   25.0780    0.9029    0.0000 C   0  0  0  0  0  0  0  0  0  0  0  0
   25.9778   -0.2973    0.0000 C   0  0  0  0  0  0  0  0  0  0  0  0
   25.3883   -1.6766    0.0000 C   0  0  0  0  0  0  0  0  0  0  0  0
   23.8991   -1.8557    0.0000 C   0  0  0  0  0  0  0  0  0  0  0  0
   27.4671   -0.1181    0.0000 O   0  0  0  0  0  0  0  0  0  0  0  0
   22.6890    1.9239    0.0000 O   0  0  0  0  0  0  0  0  0  0  0  0
   21.1997    1.7448    0.0000 C   0  0  0  0  0  0  0  0  0  0  0  0
   20.6103    0.3655    0.0000 C   0  0  0  0  0  0  0  0  0  0  0  0
   19.3961    0.8300    0.0000 C   0  0  0  0  0  0  0  0  0  0  0  0
   18.9162    1.4701    0.0000 C   0  0  0  0  0  0  0  0  0  0  0  0
   19.2306    2.2057    0.0000 C   0  0  0  0  0  0  0  0  0  0  0  0
   20.0249    2.3013    0.0000 C   0  0  0  0  0  0  0  0  0  0  0  0
   17.9109    3.9660    0.0000 O   0  0  0  0  0  0  0  0  0  0  0  0
   14.7380   -2.1969    0.0000 S   0  0  0  0  0  0  0  0  0  0  0  0
   13.6458    0.1604    0.0000 N   0  0  0  0  0  0  0  0  0  0  0  0
   12.2848   -0.4701    0.0000 C   0  0  0  0  0  0  0  0  0  0  0  0
   11.0582    0.3933    0.0000 C   0  0  0  0  0  0  0  0  0  0  0  0
    9.6971   -0.2373    0.0000 C   0  0  0  0  0  0  0  0  0  0  0  0
    9.5627   -1.7313    0.0000 O   0  0  0  0  0  0  0  0  0  0  0  0
    8.4705    0.6261    0.0000 N   0  0  0  0  0  0  0  0  0  0  0  0
    7.1095   -0.0045    0.0000 C   0  0  0  0  0  0  0  0  0  0  0  0
    6.0463   -1.0626    0.0000 C   0  0  0  0  0  0  0  0  0  0  0  0
    4.5983   -0.6708    0.0000 C   0  0  0  0  0  0  0  0  0  0  0  0
    3.5351   -1.7288    0.0000 C   0  0  0  0  0  0  0  0  0  0  0  0
    2.0871   -1.3371    0.0000 N   0  0  0  0  0  0  0  0  0  0  0  0
    1.0239   -2.3951    0.0000 C   0  0  0  0  0  0  0  0  0  0  0  0
   -0.3655   -1.8297    0.0000 N   0  0  0  0  0  0  0  0  0  0  0  0
    1.4085   -3.8449    0.0000 N   0  0  0  0  0  0  0  0  0  0  0  0
    5.8829    0.8589    0.0000 C   0  0  0  0  0  0  0  0  0  0  0  0
    6.0173    2.3528    0.0000 O   0  0  0  0  0  0  0  0  0  0  0  0
    4.5219    0.2283    0.0000 N   0  0  0  0  0  0  0  0  0  0  0  0
    3.2953    1.0917    0.0000 C   0  0  0  0  0  0  0  0  0  0  0  0
    2.4379    2.3225    0.0000 C   0  0  0  0  0  0  0  0  0  0  0  0
    3.0752    3.6804    0.0000 C   0  0  0  0  0  0  0  0  0  0  0  0
    2.2179    4.9112    0.0000 C   0  0  0  0  0  0  0  0  0  0  0  0
    2.8551    6.2691    0.0000 C   0  0  0  0  0  0  0  0  0  0  0  0
    1.9978    7.5000    0.0000 N   0  0  0  0  0  0  0  0  0  0  0  0
    1.9343    0.4611    0.0000 C   0  0  0  0  0  0  0  0  0  0  0  0
    1.5757   -0.5720    0.0000 O   0  0  0  0  0  0  0  0  0  0  0  0
    0.7077    1.3245    0.0000 N   0  0  0  0  0  0  0  0  0  0  0  0
   -0.6534    0.6939    0.0000 C   0  0  0  0  0  0  0  0  0  0  0  0
   -1.7166   -0.3642    0.0000 C   0  0  0  0  0  0  0  0  0  0  0  0
   -3.1645    0.0276    0.0000 C   0  0  0  0  0  0  0  0  0  0  0  0
   -3.5492    1.4774    0.0000 C   0  0  0  0  0  0  0  0  0  0  0  0
   -4.9971    1.8692    0.0000 C   0  0  0  0  0  0  0  0  0  0  0  0
   -6.0604    0.8112    0.0000 C   0  0  0  0  0  0  0  0  0  0  0  0
   -5.6757   -0.6386    0.0000 C   0  0  0  0  0  0  0  0  0  0  0  0
   -4.2278   -1.0304    0.0000 C   0  0  0  0  0  0  0  0  0  0  0  0
   -1.8800    1.5573    0.0000 C   0  0  0  0  0  0  0  0  0  0  0  0
   -1.3880    2.9743    0.0000 O   0  0  0  0  0  0  0  0  0  0  0  0
   -3.2410    0.9267    0.0000 N   0  0  0  0  0  0  0  0  0  0  0  0
   -4.4676    1.7901    0.0000 C   0  0  0  0  0  0  0  0  0  0  0  0
   -4.6319    3.2810    0.0000 C   0  0  0  0  0  0  0  0  0  0  0  0
   -5.2283    4.6573    0.0000 C   0  0  0  0  0  0  0  0  0  0  0  0
   -6.2040    5.7967    0.0000 C   0  0  0  0  0  0  0  0  0  0  0  0
   -7.4721    6.5979    0.0000 C   0  0  0  0  0  0  0  0  0  0  0  0
   -3.1761    2.5530    0.0000 C   0  0  0  0  0  0  0  0  0  0  0  0
   -4.7501    0.3169    0.0000 C   0  0  0  0  0  0  0  0  0  0  0  0
   -3.6083   -0.6559    0.0000 O   0  0  0  0  0  0  0  0  0  0  0  0
   -5.4542   -1.0076    0.0000 N   0  0  0  0  0  0  0  0  0  0  0  0
   -6.5175   -2.0656    0.0000 C   0  0  0  0  0  0  0  0  0  0  0  0
   -6.4277   -3.5629    0.0000 C   0  0  0  0  0  0  0  0  0  0  0  0
   -5.0862   -4.2338    0.0000 C   0  0  0  0  0  0  0  0  0  0  0  0
   -4.9964   -5.7311    0.0000 C   0  0  0  0  0  0  0  0  0  0  0  0
   -3.6548   -6.4021    0.0000 N   0  0  0  0  0  0  0  0  0  0  0  0
   -3.5651   -7.8994    0.0000 C   0  0  0  0  0  0  0  0  0  0  0  0
   -2.2235   -8.5703    0.0000 N   0  0  0  0  0  0  0  0  0  0  0  0
   -4.8169   -8.7258    0.0000 N   0  0  0  0  0  0  0  0  0  0  0  0
   -7.8454   -2.7632    0.0000 C   0  0  0  0  0  0  0  0  0  0  0  0
   -7.3535   -4.1803    0.0000 O   0  0  0  0  0  0  0  0  0  0  0  0
   -9.3199   -3.0385    0.0000 N   0  0  0  0  0  0  0  0  0  0  0  0
  -10.8101   -2.8669    0.0000 C   0  0  0  0  0  0  0  0  0  0  0  0
  -11.9248   -3.8706    0.0000 C   0  0  0  0  0  0  0  0  0  0  0  0
  -11.6128   -5.3378    0.0000 C   0  0  0  0  0  0  0  0  0  0  0  0
  -12.7275   -6.3416    0.0000 C   0  0  0  0  0  0  0  0  0  0  0  0
  -10.8179   -6.6099    0.0000 C   0  0  0  0  0  0  0  0  0  0  0  0
  -12.1834   -2.2637    0.0000 C   0  0  0  0  0  0  0  0  0  0  0  0
  -12.9846   -3.5318    0.0000 O   0  0  0  0  0  0  0  0  0  0  0  0
  -13.3180   -1.2824    0.0000 N   0  0  0  0  0  0  0  0  0  0  0  0
  -14.1129   -0.0104    0.0000 C   0  0  0  0  0  0  0  0  0  0  0  0
  -15.5927    0.2353    0.0000 C   0  0  0  0  0  0  0  0  0  0  0  0
  -16.5453   -0.9234    0.0000 C   0  0  0  0  0  0  0  0  0  0  0  0
  -18.0250   -0.6777    0.0000 C   0  0  0  0  0  0  0  0  0  0  0  0
  -18.9777   -1.8364    0.0000 C   0  0  0  0  0  0  0  0  0  0  0  0
  -18.4506   -3.2407    0.0000 C   0  0  0  0  0  0  0  0  0  0  0  0
  -16.9708   -3.4864    0.0000 C   0  0  0  0  0  0  0  0  0  0  0  0
  -16.0182   -2.3277    0.0000 C   0  0  0  0  0  0  0  0  0  0  0  0
  -14.4976    1.4394    0.0000 C   0  0  0  0  0  0  0  0  0  0  0  0
  -15.9886    1.2752    0.0000 O   0  0  0  0  0  0  0  0  0  0  0  0
  -14.4378    2.9383    0.0000 N   0  0  0  0  0  0  0  0  0  0  0  0
  -13.9389    4.3529    0.0000 C   0  0  0  0  0  0  0  0  0  0  0  0
  -13.0452    5.5576    0.0000 C   0  0  0  0  0  0  0  0  0  0  0  0
  -11.8361    6.4453    0.0000 C   0  0  0  0  0  0  0  0  0  0  0  0
  -10.4191    6.9373    0.0000 C   0  0  0  0  0  0  0  0  0  0  0  0
   -8.9200    6.9897    0.0000 C   0  0  0  0  0  0  0  0  0  0  0  0
  -15.4335    4.2258    0.0000 C   0  0  0  0  0  0  0  0  0  0  0  0
  -14.6694    5.6629    0.0000 C   0  0  0  0  0  0  0  0  0  0  0  0
  -16.1554    5.8680    0.0000 O   0  0  0  0  0  0  0  0  0  0  0  0
  -14.2346    7.0985    0.0000 O   0  0  0  0  0  0  0  0  0  0  0  0
   16.1847    1.4269    0.0000 H   0  0  0  0  0  0  0  0  0  0  0  0
   15.9646   -3.0603    0.0000 H   0  0  0  0  0  0  0  0  0  0  0  0
   18.4178   -4.7870    0.0000 H   0  0  0  0  0  0  0  0  0  0  0  0
   18.5900    1.1769    0.0000 H   0  0  0  0  0  0  0  0  0  0  0  0
   25.6675    2.2822    0.0000 H   0  0  0  0  0  0  0  0  0  0  0  0
   26.2881   -2.8768    0.0000 H   0  0  0  0  0  0  0  0  0  0  0  0
   23.3096   -3.2350    0.0000 H   0  0  0  0  0  0  0  0  0  0  0  0
   28.3669   -1.3183    0.0000 H   0  0  0  0  0  0  0  0  0  0  0  0
   18.5315   -1.1930    0.0000 H   0  0  0  0  0  0  0  0  0  0  0  0
   16.7212    1.3902    0.0000 H   0  0  0  0  0  0  0  0  0  0  0  0
   20.8895    4.3243    0.0000 H   0  0  0  0  0  0  0  0  0  0  0  0
   18.5004    5.3453    0.0000 H   0  0  0  0  0  0  0  0  0  0  0  0
   13.7802    1.6544    0.0000 H   0  0  0  0  0  0  0  0  0  0  0  0
   11.2215   -1.5282    0.0000 H   0  0  0  0  0  0  0  0  0  0  0  0
   13.1421   -1.7010    0.0000 H   0  0  0  0  0  0  0  0  0  0  0  0
   10.2008    1.6241    0.0000 H   0  0  0  0  0  0  0  0  0  0  0  0
   12.1214    1.4513    0.0000 H   0  0  0  0  0  0  0  0  0  0  0  0
    8.6049    2.1200    0.0000 H   0  0  0  0  0  0  0  0  0  0  0  0
    7.9669   -1.2354    0.0000 H   0  0  0  0  0  0  0  0  0  0  0  0
    5.5793   -2.4880    0.0000 H   0  0  0  0  0  0  0  0  0  0  0  0
    7.2729   -1.9260    0.0000 H   0  0  0  0  0  0  0  0  0  0  0  0
    3.3717    0.1926    0.0000 H   0  0  0  0  0  0  0  0  0  0  0  0
    4.5233    0.8273    0.0000 H   0  0  0  0  0  0  0  0  0  0  0  0
    2.8978   -3.0867    0.0000 H   0  0  0  0  0  0  0  0  0  0  0  0
    4.6473   -2.7353    0.0000 H   0  0  0  0  0  0  0  0  0  0  0  0
    1.3631   -0.0234    0.0000 H   0  0  0  0  0  0  0  0  0  0  0  0
   -1.4873   -3.0614    0.0000 H   0  0  0  0  0  0  0  0  0  0  0  0
   -0.6499   -0.5090    0.0000 H   0  0  0  0  0  0  0  0  0  0  0  0
    0.3453   -4.9030    0.0000 H   0  0  0  0  0  0  0  0  0  0  0  0
    2.8565   -4.2367    0.0000 H   0  0  0  0  0  0  0  0  0  0  0  0
    4.0300   -1.1888    0.0000 H   0  0  0  0  0  0  0  0  0  0  0  0
    4.4796    2.0122    0.0000 H   0  0  0  0  0  0  0  0  0  0  0  0
    1.2113    3.1859    0.0000 H   0  0  0  0  0  0  0  0  0  0  0  0
    1.1503    1.5532    0.0000 H   0  0  0  0  0  0  0  0  0  0  0  0
    4.2595    4.6009    0.0000 H   0  0  0  0  0  0  0  0  0  0  0  0
    4.3979    2.9730    0.0000 H   0  0  0  0  0  0  0  0  0  0  0  0
    0.8952    5.6187    0.0000 H   0  0  0  0  0  0  0  0  0  0  0  0
    1.0336    3.9907    0.0000 H   0  0  0  0  0  0  0  0  0  0  0  0
    3.9184    7.3272    0.0000 H   0  0  0  0  0  0  0  0  0  0  0  0
    4.1778    5.5617    0.0000 H   0  0  0  0  0  0  0  0  0  0  0  0
    2.6351    8.8579    0.0000 H   0  0  0  0  0  0  0  0  0  0  0  0
    0.7712    8.3634    0.0000 H   0  0  0  0  0  0  0  0  0  0  0  0
    0.8135    6.5794    0.0000 H   0  0  0  0  0  0  0  0  0  0  0  0
    0.6590    2.8237    0.0000 H   0  0  0  0  0  0  0  0  0  0  0  0
    0.2040   -0.5370    0.0000 H   0  0  0  0  0  0  0  0  0  0  0  0
   -2.3539   -1.7221    0.0000 H   0  0  0  0  0  0  0  0  0  0  0  0
   -0.3175   -0.9051    0.0000 H   0  0  0  0  0  0  0  0  0  0  0  0
   -2.2615    2.2468    0.0000 H   0  0  0  0  0  0  0  0  0  0  0  0
   -5.7212    3.1829    0.0000 H   0  0  0  0  0  0  0  0  0  0  0  0
   -7.5083    1.2030    0.0000 H   0  0  0  0  0  0  0  0  0  0  0  0
   -6.9634   -1.4080    0.0000 H   0  0  0  0  0  0  0  0  0  0  0  0
   -3.5038   -2.3441    0.0000 H   0  0  0  0  0  0  0  0  0  0  0  0
   -3.5565   -0.5398    0.0000 H   0  0  0  0  0  0  0  0  0  0  0  0
   -3.1355    3.1765    0.0000 H   0  0  0  0  0  0  0  0  0  0  0  0
   -3.6227    4.3908    0.0000 H   0  0  0  0  0  0  0  0  0  0  0  0
   -3.7676    4.9985    0.0000 H   0  0  0  0  0  0  0  0  0  0  0  0
   -4.4303    5.9274    0.0000 H   0  0  0  0  0  0  0  0  0  0  0  0
   -4.8262    6.3898    0.0000 H   0  0  0  0  0  0  0  0  0  0  0  0
   -5.9952    7.2821    0.0000 H   0  0  0  0  0  0  0  0  0  0  0  0
   -6.8689    7.9712    0.0000 H   0  0  0  0  0  0  0  0  0  0  0  0
   -2.8277    4.0120    0.0000 H   0  0  0  0  0  0  0  0  0  0  0  0
   -1.8120    3.1769    0.0000 H   0  0  0  0  0  0  0  0  0  0  0  0
   -2.3249    1.3180    0.0000 H   0  0  0  0  0  0  0  0  0  0  0  0
   -4.3675   -2.0414    0.0000 H   0  0  0  0  0  0  0  0  0  0  0  0
   -5.0611   -2.4248    0.0000 H   0  0  0  0  0  0  0  0  0  0  0  0
   -7.0276   -4.9378    0.0000 H   0  0  0  0  0  0  0  0  0  0  0  0
   -7.9151   -3.7570    0.0000 H   0  0  0  0  0  0  0  0  0  0  0  0
   -3.5960   -4.4054    0.0000 H   0  0  0  0  0  0  0  0  0  0  0  0
   -4.3232   -2.9424    0.0000 H   0  0  0  0  0  0  0  0  0  0  0  0
   -5.4242   -7.1689    0.0000 H   0  0  0  0  0  0  0  0  0  0  0  0
   -6.4964   -5.7425    0.0000 H   0  0  0  0  0  0  0  0  0  0  0  0
   -2.4030   -5.5757    0.0000 H   0  0  0  0  0  0  0  0  0  0  0  0
   -2.1337  -10.0676    0.0000 H   0  0  0  0  0  0  0  0  0  0  0  0
   -0.9716   -7.7439    0.0000 H   0  0  0  0  0  0  0  0  0  0  0  0
   -4.7271  -10.2231    0.0000 H   0  0  0  0  0  0  0  0  0  0  0  0
   -6.1585   -8.0549    0.0000 H   0  0  0  0  0  0  0  0  0  0  0  0
   -9.2675   -4.5376    0.0000 H   0  0  0  0  0  0  0  0  0  0  0  0
  -10.1829   -4.2294    0.0000 H   0  0  0  0  0  0  0  0  0  0  0  0
  -13.3736   -4.2588    0.0000 H   0  0  0  0  0  0  0  0  0  0  0  0
  -13.0039   -2.8287    0.0000 H   0  0  0  0  0  0  0  0  0  0  0  0
  -10.1640   -4.9496    0.0000 H   0  0  0  0  0  0  0  0  0  0  0  0
  -12.5968   -7.8358    0.0000 H   0  0  0  0  0  0  0  0  0  0  0  0
  -14.1183   -6.9035    0.0000 H   0  0  0  0  0  0  0  0  0  0  0  0
  -13.6716   -5.1759    0.0000 H   0  0  0  0  0  0  0  0  0  0  0  0
  -11.3554   -8.0103    0.0000 H   0  0  0  0  0  0  0  0  0  0  0  0
   -9.6359   -7.5333    0.0000 H   0  0  0  0  0  0  0  0  0  0  0  0
   -9.7032   -5.6061    0.0000 H   0  0  0  0  0  0  0  0  0  0  0  0
  -14.3299   -2.3897    0.0000 H   0  0  0  0  0  0  0  0  0  0  0  0
  -14.9454   -1.2581    0.0000 H   0  0  0  0  0  0  0  0  0  0  0  0
  -16.8991    0.9722    0.0000 H   0  0  0  0  0  0  0  0  0  0  0  0
  -15.4509    1.7286    0.0000 H   0  0  0  0  0  0  0  0  0  0  0  0
  -18.5521    0.7266    0.0000 H   0  0  0  0  0  0  0  0  0  0  0  0
  -20.4574   -1.5907    0.0000 H   0  0  0  0  0  0  0  0  0  0  0  0
  -19.4032   -4.3993    0.0000 H   0  0  0  0  0  0  0  0  0  0  0  0
  -16.4437   -4.8907    0.0000 H   0  0  0  0  0  0  0  0  0  0  0  0
  -14.5794   -2.7519    0.0000 H   0  0  0  0  0  0  0  0  0  0  0  0
  -15.9110    3.2207    0.0000 H   0  0  0  0  0  0  0  0  0  0  0  0
  -13.3571    7.0248    0.0000 H   0  0  0  0  0  0  0  0  0  0  0  0
  -14.3901    6.2219    0.0000 H   0  0  0  0  0  0  0  0  0  0  0  0
  -11.8848    7.9445    0.0000 H   0  0  0  0  0  0  0  0  0  0  0  0
  -12.9255    7.4765    0.0000 H   0  0  0  0  0  0  0  0  0  0  0  0
   -9.8503    8.3252    0.0000 H   0  0  0  0  0  0  0  0  0  0  0  0
  -11.3098    8.1441    0.0000 H   0  0  0  0  0  0  0  0  0  0  0  0
   -8.7484    8.4798    0.0000 H   0  0  0  0  0  0  0  0  0  0  0  0
  -16.4345    5.3430    0.0000 H   0  0  0  0  0  0  0  0  0  0  0  0
  -16.7945    3.5952    0.0000 H   0  0  0  0  0  0  0  0  0  0  0  0
  -15.4111    2.7260    0.0000 H   0  0  0  0  0  0  0  0  0  0  0  0
  1  2  1  0
  2  3  1  0
  3  4  2  0
  4  5  1  0
  5  6  2  0
  6  7  1  0
  7  8  2  0
  7  9  1  0
  9 10  1  0
 10 11  1  0
 11 12  2  0
  9 13  1  0
 13 14  1  0
 14 15  2  0
 15 16  1  0
 16 17  2  0
 17 18  1  0
 16 19  1  0
 14 20  1  0
 20 21  1  0
 21 22  2  0
 22 23  1  0
 23 24  2  0
 24 25  1  0
 25 26  2  0
 25 27  1  0
  1 28  2  0
  1 29  1  0
 29 30  1  0
 30 31  1  0
 31 32  1  0
 32 33  2  0
 32 34  1  0
 34 35  1  0
 35 36  1  0
 36 37  1  0
 37 38  1  0
 38 39  1  0
 39 40  1  0
 40 41  2  3
 40 42  1  0
 35 43  1  0
 43 44  2  0
 43 45  1  0
 45 46  1  0
 46 47  1  0
 47 48  1  0
 48 49  1  0
 49 50  1  0
 50 51  1  0
 46 52  1  0
 52 53  2  0
 52 54  1  0
 54 55  1  0
 55 56  1  0
 56 57  1  0
 57 58  2  0
 58 59  1  0
 59 60  2  0
 60 61  1  0
 61 62  2  0
 55 63  1  0
 63 64  2  0
 63 65  1  0
 66 65  1  6
 66 67  1  0
 67 68  1  0
 68 69  1  0
 69 70  1  0
 66 71  1  0
 66 72  1  0
 72 73  2  0
 72 74  1  0
 74 75  1  0
 75 76  1  0
 76 77  1  0
 77 78  1  0
 78 79  1  0
 79 80  1  0
 80 81  2  3
 80 82  1  0
 75 83  1  0
 83 84  2  0
 83 85  1  0
 85 86  1  0
 86 87  1  0
 87 88  1  0
 88 89  1  0
 88 90  1  0
 86 91  1  0
 91 92  2  0
 91 93  1  0
 93 94  1  0
 94 95  1  0
 95 96  1  0
 96 97  2  0
 97 98  1  0
 98 99  2  0
 99100  1  0
100101  2  0
 94102  1  0
102103  2  0
102104  1  0
104105  1  0
105106  1  0
106107  1  0
107108  1  0
108109  1  0
105110  1  0
105111  1  6
111112  2  0
111113  1  0
  8  3  1  0
 62 57  1  0
101 96  1  0
 11  6  1  0
 70109  2  0
 18 13  2  0
 22  9  1  0
 26 21  1  0
  2114  1  0
  4115  1  0
  5116  1  0
  8117  1  0
 15118  1  0
 17119  1  0
 18120  1  0
 19121  1  0
 23122  1  0
 24123  1  0
 26124  1  0
 27125  1  0
 29126  1  0
 30127  1  0
 30128  1  0
 31129  1  0
 31130  1  0
 34131  1  0
 35132  1  1
 36133  1  0
 36134  1  0
 37135  1  0
 37136  1  0
 38137  1  0
 38138  1  0
 39139  1  0
 41140  1  0
 41141  1  0
 42142  1  0
 42143  1  0
 45144  1  0
 46145  1  6
 47146  1  0
 47147  1  0
 48148  1  0
 48149  1  0
 49150  1  0
 49151  1  0
 50152  1  0
 50153  1  0
 51154  1  0
 51155  1  0
 51156  1  0
 54157  1  0
 55158  1  1
 56159  1  0
 56160  1  0
 58161  1  0
 59162  1  0
 60163  1  0
 61164  1  0
 62165  1  0
 65166  1  0
 67167  1  0
 67168  1  0
 68169  1  0
 68170  1  0
 69171  1  0
 69172  1  0
 70173  1  0
 71174  1  0
 71175  1  0
 71176  1  0
 74177  1  0
 75178  1  1
 76179  1  0
 76180  1  0
 77181  1  0
 77182  1  0
 78183  1  0
 78184  1  0
 79185  1  0
 81186  1  0
 81187  1  0
 82188  1  0
 82189  1  0
 85190  1  0
 86191  1  1
 87192  1  0
 87193  1  0
 88194  1  0
 89195  1  0
 89196  1  0
 89197  1  0
 90198  1  0
 90199  1  0
 90200  1  0
 93201  1  0
 94202  1  1
 95203  1  0
 95204  1  0
 97205  1  0
 98206  1  0
 99207  1  0
100208  1  0
101209  1  0
104210  1  0
106211  1  0
106212  1  0
107213  1  0
107214  1  0
108215  1  0
108216  1  0
109217  1  0
110218  1  0
110219  1  0
110220  1  0
M  CHG  4  41   1  51   1  81   1 113  -1
M  END
