
     RDKit          2D

420420  0  0  0  0  0  0  0  0999 V2000
  -42.0334   -4.3348    0.0000 N   0  0  0  0  0  0  0  0  0  0  0  0
  -40.5398   -4.4734    0.0000 C   0  0  0  0  0  0  0  0  0  0  0  0
  -39.9130   -5.8361    0.0000 C   0  0  0  0  0  0  0  0  0  0  0  0
  -38.4194   -5.9747    0.0000 C   0  0  0  0  0  0  0  0  0  0  0  0
  -37.5526   -4.7505    0.0000 O   0  0  0  0  0  0  0  0  0  0  0  0
  -37.7926   -7.3375    0.0000 N   0  0  0  0  0  0  0  0  0  0  0  0
  -36.2990   -7.4761    0.0000 C   0  0  0  0  0  0  0  0  0  0  0  0
  -36.6949   -8.9229    0.0000 C   0  0  0  0  0  0  0  0  0  0  0  0
  -38.0886   -9.4775    0.0000 O   0  0  0  0  0  0  0  0  0  0  0  0
  -34.8481   -7.0954    0.0000 C   0  0  0  0  0  0  0  0  0  0  0  0
  -33.9309   -8.2823    0.0000 O   0  0  0  0  0  0  0  0  0  0  0  0
  -34.4523   -5.6486    0.0000 N   0  0  0  0  0  0  0  0  0  0  0  0
  -33.0014   -5.2680    0.0000 C   0  0  0  0  0  0  0  0  0  0  0  0
  -31.8198   -6.1921    0.0000 C   0  0  0  0  0  0  0  0  0  0  0  0
  -30.4847   -6.8758    0.0000 C   0  0  0  0  0  0  0  0  0  0  0  0
  -29.0444   -7.2945    0.0000 C   0  0  0  0  0  0  0  0  0  0  0  0
  -27.5508   -7.4331    0.0000 C   0  0  0  0  0  0  0  0  0  0  0  0
  -26.0580   -7.2865    0.0000 C   0  0  0  0  0  0  0  0  0  0  0  0
  -24.6199   -6.8601    0.0000 C   0  0  0  0  0  0  0  0  0  0  0  0
  -23.2885   -6.1691    0.0000 C   0  0  0  0  0  0  0  0  0  0  0  0
  -33.4815   -6.6891    0.0000 C   0  0  0  0  0  0  0  0  0  0  0  0
  -33.9867   -4.1370    0.0000 C   0  0  0  0  0  0  0  0  0  0  0  0
  -35.3036   -4.8552    0.0000 O   0  0  0  0  0  0  0  0  0  0  0  0
  -34.7402   -2.8400    0.0000 N   0  0  0  0  0  0  0  0  0  0  0  0
  -35.2346   -1.4238    0.0000 C   0  0  0  0  0  0  0  0  0  0  0  0
  -36.2840   -2.4957    0.0000 C   0  0  0  0  0  0  0  0  0  0  0  0
  -37.7369   -2.1228    0.0000 C   0  0  0  0  0  0  0  0  0  0  0  0
  -38.1405   -0.6782    0.0000 C   0  0  0  0  0  0  0  0  0  0  0  0
  -39.5934   -0.3053    0.0000 O   0  0  0  0  0  0  0  0  0  0  0  0
  -37.4765    0.1906    0.0000 O   0  0  0  0  0  0  0  0  0  0  0  0
  -35.4521    0.0603    0.0000 C   0  0  0  0  0  0  0  0  0  0  0  0
  -36.5428    0.1389    0.0000 O   0  0  0  0  0  0  0  0  0  0  0  0
  -35.3847    1.5588    0.0000 N   0  0  0  0  0  0  0  0  0  0  0  0
  -35.0350    3.0175    0.0000 C   0  0  0  0  0  0  0  0  0  0  0  0
  -36.4973    2.6831    0.0000 C   0  0  0  0  0  0  0  0  0  0  0  0
  -37.5180    3.7823    0.0000 C   0  0  0  0  0  0  0  0  0  0  0  0
  -38.9802    3.4479    0.0000 C   0  0  0  0  0  0  0  0  0  0  0  0
  -38.1012    5.1642    0.0000 C   0  0  0  0  0  0  0  0  0  0  0  0
  -34.4156    4.3836    0.0000 C   0  0  0  0  0  0  0  0  0  0  0  0
  -35.6159    5.2831    0.0000 O   0  0  0  0  0  0  0  0  0  0  0  0
  -33.5488    5.6078    0.0000 N   0  0  0  0  0  0  0  0  0  0  0  0
  -32.4660    6.6458    0.0000 C   0  0  0  0  0  0  0  0  0  0  0  0
  -33.8769    7.1551    0.0000 C   0  0  0  0  0  0  0  0  0  0  0  0
  -34.1413    8.6316    0.0000 C   0  0  0  0  0  0  0  0  0  0  0  0
  -31.2063    7.4602    0.0000 C   0  0  0  0  0  0  0  0  0  0  0  0
  -31.7297    8.8659    0.0000 O   0  0  0  0  0  0  0  0  0  0  0  0
  -29.8152    8.0214    0.0000 N   0  0  0  0  0  0  0  0  0  0  0  0
  -28.3431    8.3093    0.0000 C   0  0  0  0  0  0  0  0  0  0  0  0
  -29.2547    9.5005    0.0000 C   0  0  0  0  0  0  0  0  0  0  0  0
  -26.8431    8.3133    0.0000 C   0  0  0  0  0  0  0  0  0  0  0  0
  -26.7045    9.8069    0.0000 O   0  0  0  0  0  0  0  0  0  0  0  0
  -25.3694    8.0334    0.0000 N   0  0  0  0  0  0  0  0  0  0  0  0
  -23.9754    7.4796    0.0000 C   0  0  0  0  0  0  0  0  0  0  0  0
  -24.0983    8.9746    0.0000 C   0  0  0  0  0  0  0  0  0  0  0  0
  -22.8651    9.8285    0.0000 C   0  0  0  0  0  0  0  0  0  0  0  0
  -22.9879   11.3234    0.0000 C   0  0  0  0  0  0  0  0  0  0  0  0
  -21.7547   12.1773    0.0000 O   0  0  0  0  0  0  0  0  0  0  0  0
  -24.3441   11.9645    0.0000 O   0  0  0  0  0  0  0  0  0  0  0  0
  -22.7113    6.6720    0.0000 C   0  0  0  0  0  0  0  0  0  0  0  0
  -21.6501    7.7322    0.0000 O   0  0  0  0  0  0  0  0  0  0  0  0
  -21.6230    5.6398    0.0000 N   0  0  0  0  0  0  0  0  0  0  0  0
  -20.7496    4.4203    0.0000 C   0  0  0  0  0  0  0  0  0  0  0  0
  -20.0447    5.7444    0.0000 C   0  0  0  0  0  0  0  0  0  0  0  0
  -20.1228    3.0576    0.0000 C   0  0  0  0  0  0  0  0  0  0  0  0
  -18.7066    3.5520    0.0000 O   0  0  0  0  0  0  0  0  0  0  0  0
  -19.7653    1.6008    0.0000 N   0  0  0  0  0  0  0  0  0  0  0  0
  -19.6899    0.1027    0.0000 C   0  0  0  0  0  0  0  0  0  0  0  0
  -19.8993   -1.3826    0.0000 C   0  0  0  0  0  0  0  0  0  0  0  0
  -20.3861   -2.8014    0.0000 C   0  0  0  0  0  0  0  0  0  0  0  0
  -21.1326   -4.1025    0.0000 C   0  0  0  0  0  0  0  0  0  0  0  0
  -22.1119   -5.2387    0.0000 C   0  0  0  0  0  0  0  0  0  0  0  0
  -18.3580   -0.5874    0.0000 C   0  0  0  0  0  0  0  0  0  0  0  0
  -18.3811    0.8355    0.0000 C   0  0  0  0  0  0  0  0  0  0  0  0
  -18.1786    2.3218    0.0000 O   0  0  0  0  0  0  0  0  0  0  0  0
  -17.0920    0.0684    0.0000 N   0  0  0  0  0  0  0  0  0  0  0  0
  -15.7832    0.8013    0.0000 C   0  0  0  0  0  0  0  0  0  0  0  0
  -14.8040    1.9375    0.0000 C   0  0  0  0  0  0  0  0  0  0  0  0
  -13.3303    1.6576    0.0000 C   0  0  0  0  0  0  0  0  0  0  0  0
  -12.3511    2.7939    0.0000 N   0  0  0  0  0  0  0  0  0  0  0  0
  -12.8933    0.9909    0.0000 O   0  0  0  0  0  0  0  0  0  0  0  0
  -14.4942    0.0342    0.0000 C   0  0  0  0  0  0  0  0  0  0  0  0
  -14.5139   -1.4657    0.0000 O   0  0  0  0  0  0  0  0  0  0  0  0
  -13.1854    0.7670    0.0000 N   0  0  0  0  0  0  0  0  0  0  0  0
  -11.8963   -0.0000    0.0000 C   0  0  0  0  0  0  0  0  0  0  0  0
  -10.9474   -1.1617    0.0000 C   0  0  0  0  0  0  0  0  0  0  0  0
   -9.4668   -0.9207    0.0000 C   0  0  0  0  0  0  0  0  0  0  0  0
   -8.5179   -2.0824    0.0000 C   0  0  0  0  0  0  0  0  0  0  0  0
   -8.1580   -0.1879    0.0000 C   0  0  0  0  0  0  0  0  0  0  0  0
  -10.5875    0.7328    0.0000 C   0  0  0  0  0  0  0  0  0  0  0  0
  -10.3850    2.2190    0.0000 O   0  0  0  0  0  0  0  0  0  0  0  0
   -9.2985   -0.0343    0.0000 N   0  0  0  0  0  0  0  0  0  0  0  0
   -7.9896    0.6985    0.0000 C   0  0  0  0  0  0  0  0  0  0  0  0
   -7.0104    1.8348    0.0000 C   0  0  0  0  0  0  0  0  0  0  0  0
   -5.5343    2.1017    0.0000 S   0  0  0  0  0  0  0  0  0  0  0  0
   -6.7006   -0.0685    0.0000 C   0  0  0  0  0  0  0  0  0  0  0  0
   -6.3569   -1.5286    0.0000 O   0  0  0  0  0  0  0  0  0  0  0  0
   -5.3918    0.6643    0.0000 N   0  0  0  0  0  0  0  0  0  0  0  0
   -4.1028   -0.1028    0.0000 C   0  0  0  0  0  0  0  0  0  0  0  0
   -3.1538   -1.2644    0.0000 C   0  0  0  0  0  0  0  0  0  0  0  0
   -1.9679   -2.1829    0.0000 O   0  0  0  0  0  0  0  0  0  0  0  0
   -3.6854   -2.6671    0.0000 C   0  0  0  0  0  0  0  0  0  0  0  0
   -2.7939    0.6300    0.0000 C   0  0  0  0  0  0  0  0  0  0  0  0
   -2.7742    2.1299    0.0000 O   0  0  0  0  0  0  0  0  0  0  0  0
   -1.5049   -0.1370    0.0000 N   0  0  0  0  0  0  0  0  0  0  0  0
   -0.1961    0.5958    0.0000 C   0  0  0  0  0  0  0  0  0  0  0  0
    0.7831    1.7321    0.0000 C   0  0  0  0  0  0  0  0  0  0  0  0
    2.2568    1.4521    0.0000 C   0  0  0  0  0  0  0  0  0  0  0  0
    3.2360    2.5884    0.0000 C   0  0  0  0  0  0  0  0  0  0  0  0
    3.5458    0.6851    0.0000 C   0  0  0  0  0  0  0  0  0  0  0  0
    1.0929   -0.1713    0.0000 C   0  0  0  0  0  0  0  0  0  0  0  0
    1.0732   -1.6711    0.0000 O   0  0  0  0  0  0  0  0  0  0  0  0
    2.4018    0.5616    0.0000 N   0  0  0  0  0  0  0  0  0  0  0  0
    3.6908   -0.2055    0.0000 C   0  0  0  0  0  0  0  0  0  0  0  0
    4.6397   -1.3672    0.0000 C   0  0  0  0  0  0  0  0  0  0  0  0
    4.1082   -2.7698    0.0000 C   0  0  0  0  0  0  0  0  0  0  0  0
    5.0571   -3.9315    0.0000 C   0  0  0  0  0  0  0  0  0  0  0  0
    3.1289   -3.9061    0.0000 C   0  0  0  0  0  0  0  0  0  0  0  0
    4.9996    0.5273    0.0000 C   0  0  0  0  0  0  0  0  0  0  0  0
    5.2021    2.0136    0.0000 O   0  0  0  0  0  0  0  0  0  0  0  0
    6.2886   -0.2397    0.0000 N   0  0  0  0  0  0  0  0  0  0  0  0
    7.5975    0.4931    0.0000 C   0  0  0  0  0  0  0  0  0  0  0  0
    8.5767    1.6293    0.0000 C   0  0  0  0  0  0  0  0  0  0  0  0
   10.0503    1.3494    0.0000 C   0  0  0  0  0  0  0  0  0  0  0  0
   11.0296    2.4857    0.0000 C   0  0  0  0  0  0  0  0  0  0  0  0
   12.5264    2.3875    0.0000 O   0  0  0  0  0  0  0  0  0  0  0  0
   10.5352    3.9018    0.0000 O   0  0  0  0  0  0  0  0  0  0  0  0
    8.8865   -0.2740    0.0000 C   0  0  0  0  0  0  0  0  0  0  0  0
    8.8667   -1.7739    0.0000 O   0  0  0  0  0  0  0  0  0  0  0  0
   10.1953    0.4588    0.0000 N   0  0  0  0  0  0  0  0  0  0  0  0
   11.4843   -0.3082    0.0000 C   0  0  0  0  0  0  0  0  0  0  0  0
   12.4333   -1.4699    0.0000 C   0  0  0  0  0  0  0  0  0  0  0  0
   11.9017   -2.8726    0.0000 C   0  0  0  0  0  0  0  0  0  0  0  0
   12.8507   -4.0342    0.0000 N   0  0  0  0  0  0  0  0  0  0  0  0
   10.4212   -3.1135    0.0000 O   0  0  0  0  0  0  0  0  0  0  0  0
   12.7932    0.4246    0.0000 C   0  0  0  0  0  0  0  0  0  0  0  0
   12.9956    1.9109    0.0000 O   0  0  0  0  0  0  0  0  0  0  0  0
   14.0822   -0.3425    0.0000 N   0  0  0  0  0  0  0  0  0  0  0  0
   15.3910    0.3903    0.0000 C   0  0  0  0  0  0  0  0  0  0  0  0
   16.3702    1.5266    0.0000 C   0  0  0  0  0  0  0  0  0  0  0  0
   16.6800   -0.3767    0.0000 C   0  0  0  0  0  0  0  0  0  0  0  0
   16.6603   -1.8766    0.0000 O   0  0  0  0  0  0  0  0  0  0  0  0
   17.9889    0.3561    0.0000 N   0  0  0  0  0  0  0  0  0  0  0  0
   19.2779   -0.4110    0.0000 C   0  0  0  0  0  0  0  0  0  0  0  0
   20.2268   -1.5726    0.0000 C   0  0  0  0  0  0  0  0  0  0  0  0
   19.5283   -2.9000    0.0000 C   0  0  0  0  0  0  0  0  0  0  0  0
   21.5159   -2.3397    0.0000 C   0  0  0  0  0  0  0  0  0  0  0  0
   21.4961   -3.8396    0.0000 C   0  0  0  0  0  0  0  0  0  0  0  0
   20.5867    0.3219    0.0000 C   0  0  0  0  0  0  0  0  0  0  0  0
   20.6065    1.8217    0.0000 O   0  0  0  0  0  0  0  0  0  0  0  0
   21.8757   -0.4452    0.0000 N   0  0  0  0  0  0  0  0  0  0  0  0
   23.1846    0.2876    0.0000 C   0  0  0  0  0  0  0  0  0  0  0  0
   24.1638    1.4239    0.0000 C   0  0  0  0  0  0  0  0  0  0  0  0
   25.6375    1.1439    0.0000 C   0  0  0  0  0  0  0  0  0  0  0  0
   26.6167    2.2802    0.0000 C   0  0  0  0  0  0  0  0  0  0  0  0
   28.1135    2.1820    0.0000 N   0  0  0  0  0  0  0  0  0  0  0  0
   26.1223    3.6964    0.0000 O   0  0  0  0  0  0  0  0  0  0  0  0
   24.4736   -0.4794    0.0000 C   0  0  0  0  0  0  0  0  0  0  0  0
   24.4538   -1.9793    0.0000 O   0  0  0  0  0  0  0  0  0  0  0  0
   25.7824    0.2534    0.0000 N   0  0  0  0  0  0  0  0  0  0  0  0
   27.0714   -0.5137    0.0000 C   0  0  0  0  0  0  0  0  0  0  0  0
   28.0204   -1.6754    0.0000 C   0  0  0  0  0  0  0  0  0  0  0  0
   27.4888   -3.0780    0.0000 C   0  0  0  0  0  0  0  0  0  0  0  0
   28.4378   -4.2397    0.0000 O   0  0  0  0  0  0  0  0  0  0  0  0
   26.0083   -3.3190    0.0000 O   0  0  0  0  0  0  0  0  0  0  0  0
   28.3803    0.2191    0.0000 C   0  0  0  0  0  0  0  0  0  0  0  0
   28.5827    1.7054    0.0000 O   0  0  0  0  0  0  0  0  0  0  0  0
   29.6693   -0.5479    0.0000 N   0  0  0  0  0  0  0  0  0  0  0  0
   30.9781    0.1849    0.0000 C   0  0  0  0  0  0  0  0  0  0  0  0
   31.9574    1.3211    0.0000 C   0  0  0  0  0  0  0  0  0  0  0  0
   32.4889    2.7238    0.0000 O   0  0  0  0  0  0  0  0  0  0  0  0
   33.4541    1.2229    0.0000 C   0  0  0  0  0  0  0  0  0  0  0  0
   32.2671   -0.5822    0.0000 C   0  0  0  0  0  0  0  0  0  0  0  0
   32.2474   -2.0820    0.0000 O   0  0  0  0  0  0  0  0  0  0  0  0
   33.5760    0.1506    0.0000 N   0  0  0  0  0  0  0  0  0  0  0  0
   34.8650   -0.6164    0.0000 C   0  0  0  0  0  0  0  0  0  0  0  0
   35.8140   -1.7781    0.0000 C   0  0  0  0  0  0  0  0  0  0  0  0
   35.2824   -3.1807    0.0000 C   0  0  0  0  0  0  0  0  0  0  0  0
   36.1738    0.1164    0.0000 C   0  0  0  0  0  0  0  0  0  0  0  0
   36.1936    1.6163    0.0000 O   0  0  0  0  0  0  0  0  0  0  0  0
   37.4629   -0.6507    0.0000 N   0  0  0  0  0  0  0  0  0  0  0  0
   38.7717    0.0822    0.0000 C   0  0  0  0  0  0  0  0  0  0  0  0
   39.7509    1.2184    0.0000 C   0  0  0  0  0  0  0  0  0  0  0  0
   41.2246    0.9385    0.0000 C   0  0  0  0  0  0  0  0  0  0  0  0
   42.2038    2.0748    0.0000 C   0  0  0  0  0  0  0  0  0  0  0  0
   43.6774    1.7948    0.0000 N   0  0  0  0  0  0  0  0  0  0  0  0
   44.6567    2.9311    0.0000 C   0  0  0  0  0  0  0  0  0  0  0  0
   46.0852    2.4736    0.0000 N   0  0  0  0  0  0  0  0  0  0  0  0
   44.1623    4.3473    0.0000 N   0  0  0  0  0  0  0  0  0  0  0  0
   40.0607   -0.6849    0.0000 C   0  0  0  0  0  0  0  0  0  0  0  0
   40.0409   -2.1848    0.0000 O   0  0  0  0  0  0  0  0  0  0  0  0
   41.3695    0.0479    0.0000 N   0  0  0  0  0  0  0  0  0  0  0  0
   42.6586   -0.7191    0.0000 C   0  0  0  0  0  0  0  0  0  0  0  0
   43.6075   -1.8808    0.0000 C   0  0  0  0  0  0  0  0  0  0  0  0
   43.0759   -3.2835    0.0000 C   0  0  0  0  0  0  0  0  0  0  0  0
   44.0249   -4.4452    0.0000 C   0  0  0  0  0  0  0  0  0  0  0  0
   43.4933   -5.8478    0.0000 O   0  0  0  0  0  0  0  0  0  0  0  0
   45.5054   -4.2042    0.0000 O   0  0  0  0  0  0  0  0  0  0  0  0
   43.9674    0.0137    0.0000 C   0  0  0  0  0  0  0  0  0  0  0  0
   44.3495    1.4642    0.0000 O   0  0  0  0  0  0  0  0  0  0  0  0
   45.2564   -0.7534    0.0000 N   0  0  0  0  0  0  0  0  0  0  0  0
   46.5652   -0.0206    0.0000 C   0  0  0  0  0  0  0  0  0  0  0  0
   47.5445    1.1157    0.0000 C   0  0  0  0  0  0  0  0  0  0  0  0
   49.0181    0.8358    0.0000 C   0  0  0  0  0  0  0  0  0  0  0  0
   49.9973    1.9720    0.0000 C   0  0  0  0  0  0  0  0  0  0  0  0
   51.4710    1.6921    0.0000 N   0  0  0  0  0  0  0  0  0  0  0  0
   49.5029    3.3882    0.0000 O   0  0  0  0  0  0  0  0  0  0  0  0
   47.8543   -0.7876    0.0000 C   0  0  0  0  0  0  0  0  0  0  0  0
   49.2426   -0.2198    0.0000 O   0  0  0  0  0  0  0  0  0  0  0  0
   47.8345   -2.2875    0.0000 O   0  0  0  0  0  0  0  0  0  0  0  0
  -42.6602   -2.9720    0.0000 H   0  0  0  0  0  0  0  0  0  0  0  0
  -42.9002   -5.5590    0.0000 H   0  0  0  0  0  0  0  0  0  0  0  0
  -40.6627   -2.9784    0.0000 H   0  0  0  0  0  0  0  0  0  0  0  0
  -39.0889   -4.0928    0.0000 H   0  0  0  0  0  0  0  0  0  0  0  0
  -41.3639   -6.2168    0.0000 H   0  0  0  0  0  0  0  0  0  0  0  0
  -39.7901   -7.3311    0.0000 H   0  0  0  0  0  0  0  0  0  0  0  0
  -38.8022   -8.4469    0.0000 H   0  0  0  0  0  0  0  0  0  0  0  0
  -36.4219   -5.9811    0.0000 H   0  0  0  0  0  0  0  0  0  0  0  0
  -36.5720  -10.4178    0.0000 H   0  0  0  0  0  0  0  0  0  0  0  0
  -35.2013   -9.0615    0.0000 H   0  0  0  0  0  0  0  0  0  0  0  0
  -38.5416  -10.7503    0.0000 H   0  0  0  0  0  0  0  0  0  0  0  0
  -35.6295   -4.7190    0.0000 H   0  0  0  0  0  0  0  0  0  0  0  0
  -32.0223   -7.6783    0.0000 H   0  0  0  0  0  0  0  0  0  0  0  0
  -33.0834   -7.0004    0.0000 H   0  0  0  0  0  0  0  0  0  0  0  0
  -30.4023   -8.3735    0.0000 H   0  0  0  0  0  0  0  0  0  0  0  0
  -31.5725   -7.9087    0.0000 H   0  0  0  0  0  0  0  0  0  0  0  0
  -28.6799   -8.7496    0.0000 H   0  0  0  0  0  0  0  0  0  0  0  0
  -29.9170   -8.5146    0.0000 H   0  0  0  0  0  0  0  0  0  0  0  0
  -26.9176   -8.7929    0.0000 H   0  0  0  0  0  0  0  0  0  0  0  0
  -28.1767   -8.7963    0.0000 H   0  0  0  0  0  0  0  0  0  0  0  0
  -25.1788   -8.5019    0.0000 H   0  0  0  0  0  0  0  0  0  0  0  0
  -26.4146   -8.7435    0.0000 H   0  0  0  0  0  0  0  0  0  0  0  0
  -23.4096   -7.7462    0.0000 H   0  0  0  0  0  0  0  0  0  0  0  0
  -24.6943   -8.3582    0.0000 H   0  0  0  0  0  0  0  0  0  0  0  0
  -22.4741   -7.4288    0.0000 H   0  0  0  0  0  0  0  0  0  0  0  0
  -34.5657   -7.4952    0.0000 H   0  0  0  0  0  0  0  0  0  0  0  0
  -32.9034   -8.1617    0.0000 H   0  0  0  0  0  0  0  0  0  0  0  0
  -31.8773   -7.1834    0.0000 H   0  0  0  0  0  0  0  0  0  0  0  0
  -36.0164   -3.6282    0.0000 H   0  0  0  0  0  0  0  0  0  0  0  0
  -36.6610   -0.9596    0.0000 H   0  0  0  0  0  0  0  0  0  0  0  0
  -37.0653   -3.7761    0.0000 H   0  0  0  0  0  0  0  0  0  0  0  0
  -35.2880   -3.6173    0.0000 H   0  0  0  0  0  0  0  0  0  0  0  0
  -39.2297   -2.2694    0.0000 H   0  0  0  0  0  0  0  0  0  0  0  0
  -37.8518   -3.6184    0.0000 H   0  0  0  0  0  0  0  0  0  0  0  0
  -36.8845    1.5857    0.0000 H   0  0  0  0  0  0  0  0  0  0  0  0
  -35.8353    4.2862    0.0000 H   0  0  0  0  0  0  0  0  0  0  0  0
  -37.7570    1.8688    0.0000 H   0  0  0  0  0  0  0  0  0  0  0  0
  -36.2658    1.2011    0.0000 H   0  0  0  0  0  0  0  0  0  0  0  0
  -36.4928    4.8772    0.0000 H   0  0  0  0  0  0  0  0  0  0  0  0
  -40.1273    4.4144    0.0000 H   0  0  0  0  0  0  0  0  0  0  0  0
  -40.2399    2.6335    0.0000 H   0  0  0  0  0  0  0  0  0  0  0  0
  -38.5698    2.0051    0.0000 H   0  0  0  0  0  0  0  0  0  0  0  0
  -39.5559    5.5302    0.0000 H   0  0  0  0  0  0  0  0  0  0  0  0
  -38.1766    6.6623    0.0000 H   0  0  0  0  0  0  0  0  0  0  0  0
  -36.6390    5.4986    0.0000 H   0  0  0  0  0  0  0  0  0  0  0  0
  -34.7959    6.4412    0.0000 H   0  0  0  0  0  0  0  0  0  0  0  0
  -32.4533    8.1458    0.0000 H   0  0  0  0  0  0  0  0  0  0  0  0
  -35.3662    7.3339    0.0000 H   0  0  0  0  0  0  0  0  0  0  0  0
  -34.4834    5.7832    0.0000 H   0  0  0  0  0  0  0  0  0  0  0  0
  -35.5522    9.1408    0.0000 H   0  0  0  0  0  0  0  0  0  0  0  0
  -33.8848   10.1095    0.0000 H   0  0  0  0  0  0  0  0  0  0  0  0
  -32.6869    8.9985    0.0000 H   0  0  0  0  0  0  0  0  0  0  0  0
  -30.4138    9.3968    0.0000 H   0  0  0  0  0  0  0  0  0  0  0  0
  -27.6806    9.6550    0.0000 H   0  0  0  0  0  0  0  0  0  0  0  0
  -28.6789   10.8855    0.0000 H   0  0  0  0  0  0  0  0  0  0  0  0
  -30.4109   10.4561    0.0000 H   0  0  0  0  0  0  0  0  0  0  0  0
  -30.5066    8.6742    0.0000 H   0  0  0  0  0  0  0  0  0  0  0  0
  -25.1294    9.5140    0.0000 H   0  0  0  0  0  0  0  0  0  0  0  0
  -22.6057    8.0912    0.0000 H   0  0  0  0  0  0  0  0  0  0  0  0
  -24.5543   10.4036    0.0000 H   0  0  0  0  0  0  0  0  0  0  0  0
  -25.5982    8.9563    0.0000 H   0  0  0  0  0  0  0  0  0  0  0  0
  -21.4142   10.2091    0.0000 H   0  0  0  0  0  0  0  0  0  0  0  0
  -21.9271    8.6579    0.0000 H   0  0  0  0  0  0  0  0  0  0  0  0
  -20.6205    6.7557    0.0000 H   0  0  0  0  0  0  0  0  0  0  0  0
  -19.2502    4.3768    0.0000 H   0  0  0  0  0  0  0  0  0  0  0  0
  -18.5456    5.7960    0.0000 H   0  0  0  0  0  0  0  0  0  0  0  0
  -19.6558    7.1931    0.0000 H   0  0  0  0  0  0  0  0  0  0  0  0
  -21.3164    6.5400    0.0000 H   0  0  0  0  0  0  0  0  0  0  0  0
  -18.3187    1.9975    0.0000 H   0  0  0  0  0  0  0  0  0  0  0  0
  -18.4286   -1.0878    0.0000 H   0  0  0  0  0  0  0  0  0  0  0  0
  -18.8443   -2.4488    0.0000 H   0  0  0  0  0  0  0  0  0  0  0  0
  -18.8960   -2.9732    0.0000 H   0  0  0  0  0  0  0  0  0  0  0  0
  -19.4062   -3.9371    0.0000 H   0  0  0  0  0  0  0  0  0  0  0  0
  -19.6577   -4.3754    0.0000 H   0  0  0  0  0  0  0  0  0  0  0  0
  -20.5494   -5.4844    0.0000 H   0  0  0  0  0  0  0  0  0  0  0  0
  -21.0739   -6.3216    0.0000 H   0  0  0  0  0  0  0  0  0  0  0  0
  -18.1608   -2.2416    0.0000 H   0  0  0  0  0  0  0  0  0  0  0  0
  -17.0739   -1.2791    0.0000 H   0  0  0  0  0  0  0  0  0  0  0  0
  -17.5557    0.4585    0.0000 H   0  0  0  0  0  0  0  0  0  0  0  0
  -16.9288   -1.4227    0.0000 H   0  0  0  0  0  0  0  0  0  0  0  0
  -16.7322    1.9629    0.0000 H   0  0  0  0  0  0  0  0  0  0  0  0
  -14.2724    3.3402    0.0000 H   0  0  0  0  0  0  0  0  0  0  0  0
  -16.0930    2.7046    0.0000 H   0  0  0  0  0  0  0  0  0  0  0  0
  -10.8543    2.6957    0.0000 H   0  0  0  0  0  0  0  0  0  0  0  0
  -12.8455    4.2100    0.0000 H   0  0  0  0  0  0  0  0  0  0  0  0
  -12.8032    2.2175    0.0000 H   0  0  0  0  0  0  0  0  0  0  0  0
  -12.8756   -1.1363    0.0000 H   0  0  0  0  0  0  0  0  0  0  0  0
  -10.6293   -2.6276    0.0000 H   0  0  0  0  0  0  0  0  0  0  0  0
  -12.2562   -1.8945    0.0000 H   0  0  0  0  0  0  0  0  0  0  0  0
   -9.2384    0.5618    0.0000 H   0  0  0  0  0  0  0  0  0  0  0  0
   -7.0231   -2.2068    0.0000 H   0  0  0  0  0  0  0  0  0  0  0  0
   -8.0235   -3.4986    0.0000 H   0  0  0  0  0  0  0  0  0  0  0  0
   -9.7276   -2.9693    0.0000 H   0  0  0  0  0  0  0  0  0  0  0  0
   -6.8690   -0.9550    0.0000 H   0  0  0  0  0  0  0  0  0  0  0  0
   -7.1788    0.9483    0.0000 H   0  0  0  0  0  0  0  0  0  0  0  0
   -9.2415    0.8494    0.0000 H   0  0  0  0  0  0  0  0  0  0  0  0
   -8.9547   -1.4944    0.0000 H   0  0  0  0  0  0  0  0  0  0  0  0
   -8.7899    1.9672    0.0000 H   0  0  0  0  0  0  0  0  0  0  0  0
   -6.4788    3.2374    0.0000 H   0  0  0  0  0  0  0  0  0  0  0  0
   -8.2994    2.6018    0.0000 H   0  0  0  0  0  0  0  0  0  0  0  0
   -4.5575    2.6911    0.0000 H   0  0  0  0  0  0  0  0  0  0  0  0
   -5.1893    2.1506    0.0000 H   0  0  0  0  0  0  0  0  0  0  0  0
   -5.2132   -1.1112    0.0000 H   0  0  0  0  0  0  0  0  0  0  0  0
   -1.9287   -0.3989    0.0000 H   0  0  0  0  0  0  0  0  0  0  0  0
   -1.7016   -3.5226    0.0000 H   0  0  0  0  0  0  0  0  0  0  0  0
   -2.8851   -3.9358    0.0000 H   0  0  0  0  0  0  0  0  0  0  0  0
   -4.6646   -3.8034    0.0000 H   0  0  0  0  0  0  0  0  0  0  0  0
   -5.0583   -2.0629    0.0000 H   0  0  0  0  0  0  0  0  0  0  0  0
   -1.3417   -1.6281    0.0000 H   0  0  0  0  0  0  0  0  0  0  0  0
   -1.1451    1.7575    0.0000 H   0  0  0  0  0  0  0  0  0  0  0  0
    1.1398    3.1890    0.0000 H   0  0  0  0  0  0  0  0  0  0  0  0
   -0.5059    2.4991    0.0000 H   0  0  0  0  0  0  0  0  0  0  0  0
    2.4461   -0.0359    0.0000 H   0  0  0  0  0  0  0  0  0  0  0  0
    4.7336    2.6734    0.0000 H   0  0  0  0  0  0  0  0  0  0  0  0
    3.7676    3.9911    0.0000 H   0  0  0  0  0  0  0  0  0  0  0  0
    2.0501    3.5069    0.0000 H   0  0  0  0  0  0  0  0  0  0  0  0
    3.8896   -0.7750    0.0000 H   0  0  0  0  0  0  0  0  0  0  0  0
    5.0219    0.9520    0.0000 H   0  0  0  0  0  0  0  0  0  0  0  0
    4.2444    2.0125    0.0000 H   0  0  0  0  0  0  0  0  0  0  0  0
    2.7839    2.0121    0.0000 H   0  0  0  0  0  0  0  0  0  0  0  0
    2.5803   -1.2139    0.0000 H   0  0  0  0  0  0  0  0  0  0  0  0
    5.9288   -2.1342    0.0000 H   0  0  0  0  0  0  0  0  0  0  0  0
    5.9612   -0.6574    0.0000 H   0  0  0  0  0  0  0  0  0  0  0  0
    2.7353   -2.1656    0.0000 H   0  0  0  0  0  0  0  0  0  0  0  0
    4.7005   -5.3885    0.0000 H   0  0  0  0  0  0  0  0  0  0  0  0
    6.3462   -4.6986    0.0000 H   0  0  0  0  0  0  0  0  0  0  0  0
    6.1676   -2.9231    0.0000 H   0  0  0  0  0  0  0  0  0  0  0  0
    3.4470   -5.3720    0.0000 H   0  0  0  0  0  0  0  0  0  0  0  0
    1.8201   -4.6389    0.0000 H   0  0  0  0  0  0  0  0  0  0  0  0
    2.1800   -2.7444    0.0000 H   0  0  0  0  0  0  0  0  0  0  0  0
    6.4518   -1.7308    0.0000 H   0  0  0  0  0  0  0  0  0  0  0  0
    6.6485    1.6547    0.0000 H   0  0  0  0  0  0  0  0  0  0  0  0
    9.1083    3.0320    0.0000 H   0  0  0  0  0  0  0  0  0  0  0  0
    7.2877    2.3964    0.0000 H   0  0  0  0  0  0  0  0  0  0  0  0
   11.3394    0.5824    0.0000 H   0  0  0  0  0  0  0  0  0  0  0  0
   10.2397   -0.1386    0.0000 H   0  0  0  0  0  0  0  0  0  0  0  0
   10.5774    1.9093    0.0000 H   0  0  0  0  0  0  0  0  0  0  0  0
   10.5051   -1.4445    0.0000 H   0  0  0  0  0  0  0  0  0  0  0  0
   13.6192   -2.3884    0.0000 H   0  0  0  0  0  0  0  0  0  0  0  0
   13.6584   -0.6044    0.0000 H   0  0  0  0  0  0  0  0  0  0  0  0
   12.3191   -5.4369    0.0000 H   0  0  0  0  0  0  0  0  0  0  0  0
   14.3312   -3.7933    0.0000 H   0  0  0  0  0  0  0  0  0  0  0  0
   14.2454   -1.8336    0.0000 H   0  0  0  0  0  0  0  0  0  0  0  0
   14.4421    1.5520    0.0000 H   0  0  0  0  0  0  0  0  0  0  0  0
   17.8463    1.7935    0.0000 H   0  0  0  0  0  0  0  0  0  0  0  0
   16.9018    2.9293    0.0000 H   0  0  0  0  0  0  0  0  0  0  0  0
   15.0812    2.2937    0.0000 H   0  0  0  0  0  0  0  0  0  0  0  0
   18.1913    1.8424    0.0000 H   0  0  0  0  0  0  0  0  0  0  0  0
   18.1675   -1.4194    0.0000 H   0  0  0  0  0  0  0  0  0  0  0  0
   21.4519   -0.7071    0.0000 H   0  0  0  0  0  0  0  0  0  0  0  0
   20.4851   -4.2638    0.0000 H   0  0  0  0  0  0  0  0  0  0  0  0
   18.7160   -4.1115    0.0000 H   0  0  0  0  0  0  0  0  0  0  0  0
   18.3224   -2.3711    0.0000 H   0  0  0  0  0  0  0  0  0  0  0  0
   22.9895   -2.6196    0.0000 H   0  0  0  0  0  0  0  0  0  0  0  0
   22.3711   -1.1073    0.0000 H   0  0  0  0  0  0  0  0  0  0  0  0
   22.7852   -4.6066    0.0000 H   0  0  0  0  0  0  0  0  0  0  0  0
   20.9646   -5.2422    0.0000 H   0  0  0  0  0  0  0  0  0  0  0  0
   19.9985   -3.9245    0.0000 H   0  0  0  0  0  0  0  0  0  0  0  0
   22.2195   -1.9053    0.0000 H   0  0  0  0  0  0  0  0  0  0  0  0
   22.2356    1.4493    0.0000 H   0  0  0  0  0  0  0  0  0  0  0  0
   24.6954    2.8265    0.0000 H   0  0  0  0  0  0  0  0  0  0  0  0
   22.8748    2.1909    0.0000 H   0  0  0  0  0  0  0  0  0  0  0  0
   26.9265    0.3769    0.0000 H   0  0  0  0  0  0  0  0  0  0  0  0
   25.8268   -0.3441    0.0000 H   0  0  0  0  0  0  0  0  0  0  0  0
   29.0696    3.1365    0.0000 H   0  0  0  0  0  0  0  0  0  0  0  0
   28.9574    0.7456    0.0000 H   0  0  0  0  0  0  0  0  0  0  0  0
   26.1645    1.7039    0.0000 H   0  0  0  0  0  0  0  0  0  0  0  0
   26.0922   -1.6499    0.0000 H   0  0  0  0  0  0  0  0  0  0  0  0
   29.2063   -2.5938    0.0000 H   0  0  0  0  0  0  0  0  0  0  0  0
   29.2455   -0.8098    0.0000 H   0  0  0  0  0  0  0  0  0  0  0  0
   29.8325   -2.0390    0.0000 H   0  0  0  0  0  0  0  0  0  0  0  0
   30.0292    1.3466    0.0000 H   0  0  0  0  0  0  0  0  0  0  0  0
   30.6683    2.0882    0.0000 H   0  0  0  0  0  0  0  0  0  0  0  0
   33.9290    3.1434    0.0000 H   0  0  0  0  0  0  0  0  0  0  0  0
   34.5414    2.0496    0.0000 H   0  0  0  0  0  0  0  0  0  0  0  0
   34.7200    0.2742    0.0000 H   0  0  0  0  0  0  0  0  0  0  0  0
   33.6203   -0.4468    0.0000 H   0  0  0  0  0  0  0  0  0  0  0  0
   33.7784    1.6369    0.0000 H   0  0  0  0  0  0  0  0  0  0  0  0
   33.7546   -1.6248    0.0000 H   0  0  0  0  0  0  0  0  0  0  0  0
   36.9999   -2.6966    0.0000 H   0  0  0  0  0  0  0  0  0  0  0  0
   37.0390   -0.9126    0.0000 H   0  0  0  0  0  0  0  0  0  0  0  0
   36.2313   -4.3424    0.0000 H   0  0  0  0  0  0  0  0  0  0  0  0
   34.3031   -4.3170    0.0000 H   0  0  0  0  0  0  0  0  0  0  0  0
   33.9095   -2.5765    0.0000 H   0  0  0  0  0  0  0  0  0  0  0  0
   37.6261   -2.1418    0.0000 H   0  0  0  0  0  0  0  0  0  0  0  0
   37.8227    1.2438    0.0000 H   0  0  0  0  0  0  0  0  0  0  0  0
   40.1075    2.6754    0.0000 H   0  0  0  0  0  0  0  0  0  0  0  0
   38.4619    1.9855    0.0000 H   0  0  0  0  0  0  0  0  0  0  0  0
   42.5136    0.1714    0.0000 H   0  0  0  0  0  0  0  0  0  0  0  0
   41.4139   -0.5495    0.0000 H   0  0  0  0  0  0  0  0  0  0  0  0
   42.7354    3.4774    0.0000 H   0  0  0  0  0  0  0  0  0  0  0  0
   41.0179    2.9932    0.0000 H   0  0  0  0  0  0  0  0  0  0  0  0
   44.4998    0.5404    0.0000 H   0  0  0  0  0  0  0  0  0  0  0  0
   47.1096    3.7874    0.0000 H   0  0  0  0  0  0  0  0  0  0  0  0
   46.4697    1.1785    0.0000 H   0  0  0  0  0  0  0  0  0  0  0  0
   45.1415    5.4835    0.0000 H   0  0  0  0  0  0  0  0  0  0  0  0
   42.6886    4.6272    0.0000 H   0  0  0  0  0  0  0  0  0  0  0  0
   41.7516    1.4984    0.0000 H   0  0  0  0  0  0  0  0  0  0  0  0
   41.5481   -1.7276    0.0000 H   0  0  0  0  0  0  0  0  0  0  0  0
   44.7934   -2.7993    0.0000 H   0  0  0  0  0  0  0  0  0  0  0  0
   44.8326   -1.0153    0.0000 H   0  0  0  0  0  0  0  0  0  0  0  0
   42.0967   -4.4197    0.0000 H   0  0  0  0  0  0  0  0  0  0  0  0
   41.7030   -2.6793    0.0000 H   0  0  0  0  0  0  0  0  0  0  0  0
   45.4196   -2.2445    0.0000 H   0  0  0  0  0  0  0  0  0  0  0  0
   45.6163    1.1411    0.0000 H   0  0  0  0  0  0  0  0  0  0  0  0
   48.0760    2.5183    0.0000 H   0  0  0  0  0  0  0  0  0  0  0  0
   46.1081    1.5480    0.0000 H   0  0  0  0  0  0  0  0  0  0  0  0
   50.3071    0.0687    0.0000 H   0  0  0  0  0  0  0  0  0  0  0  0
   49.0246   -0.6642    0.0000 H   0  0  0  0  0  0  0  0  0  0  0  0
   52.4502    2.8284    0.0000 H   0  0  0  0  0  0  0  0  0  0  0  0
   51.9654    0.2759    0.0000 H   0  0  0  0  0  0  0  0  0  0  0  0
  1  2  1  0
  2  3  1  0
  3  4  1  0
  4  5  2  0
  4  6  1  0
  6  7  1  0
  7  8  1  0
  8  9  1  0
  7 10  1  0
 10 11  2  0
 10 12  1  0
 13 12  1  1
 13 14  1  0
 14 15  1  0
 15 16  1  0
 16 17  1  0
 17 18  1  0
 18 19  1  0
 19 20  1  0
 13 21  1  0
 13 22  1  0
 22 23  2  0
 22 24  1  0
 24 25  1  0
 25 26  1  0
 26 27  1  0
 27 28  1  0
 28 29  2  0
 28 30  1  0
 25 31  1  0
 31 32  2  0
 31 33  1  0
 33 34  1  0
 34 35  1  0
 35 36  1  0
 36 37  1  0
 36 38  1  0
 34 39  1  0
 39 40  2  0
 39 41  1  0
 41 42  1  0
 42 43  1  0
 43 44  1  0
 42 45  1  0
 45 46  2  0
 45 47  1  0
 47 48  1  0
 48 49  1  0
 48 50  1  0
 50 51  2  0
 50 52  1  0
 52 53  1  0
 53 54  1  0
 54 55  1  0
 55 56  1  0
 56 57  2  0
 56 58  1  0
 53 59  1  0
 59 60  2  0
 59 61  1  0
 61 62  1  0
 62 63  1  0
 62 64  1  0
 64 65  2  0
 64 66  1  0
 66 67  1  0
 67 68  1  0
 68 69  1  0
 69 70  1  0
 70 71  1  0
 67 72  1  0
 67 73  1  6
 73 74  2  0
 73 75  1  0
 75 76  1  0
 76 77  1  0
 77 78  1  0
 78 79  1  0
 78 80  2  0
 76 81  1  0
 81 82  2  0
 81 83  1  0
 83 84  1  0
 84 85  1  0
 85 86  1  0
 86 87  1  0
 86 88  1  0
 84 89  1  0
 89 90  2  0
 89 91  1  0
 91 92  1  0
 92 93  1  0
 93 94  1  0
 92 95  1  0
 95 96  2  0
 95 97  1  0
 97 98  1  0
 98 99  1  0
 99100  1  0
 99101  1  0
 98102  1  0
102103  2  0
102104  1  0
104105  1  0
105106  1  0
106107  1  0
107108  1  0
107109  1  0
105110  1  0
110111  2  0
110112  1  0
112113  1  0
113114  1  0
114115  1  0
115116  1  0
115117  1  0
113118  1  0
118119  2  0
118120  1  0
120121  1  0
121122  1  0
122123  1  0
123124  1  0
124125  2  0
124126  1  0
121127  1  0
127128  2  0
127129  1  0
129130  1  0
130131  1  0
131132  1  0
132133  1  0
132134  2  0
130135  1  0
135136  2  0
135137  1  0
137138  1  0
138139  1  0
138140  1  0
140141  2  0
140142  1  0
142143  1  0
143144  1  0
144145  1  0
144146  1  0
146147  1  0
143148  1  0
148149  2  0
148150  1  0
150151  1  0
151152  1  0
152153  1  0
153154  1  0
154155  1  0
154156  2  0
151157  1  0
157158  2  0
157159  1  0
159160  1  0
160161  1  0
161162  1  0
162163  2  0
162164  1  0
160165  1  0
165166  2  0
165167  1  0
167168  1  0
168169  1  0
169170  1  0
169171  1  0
168172  1  0
172173  2  0
172174  1  0
174175  1  0
175176  1  0
176177  1  0
175178  1  0
178179  2  0
178180  1  0
180181  1  0
181182  1  0
182183  1  0
183184  1  0
184185  1  0
185186  1  0
186187  2  3
186188  1  0
181189  1  0
189190  2  0
189191  1  0
191192  1  0
192193  1  0
193194  1  0
194195  1  0
195196  2  0
195197  1  0
192198  1  0
198199  2  0
198200  1  0
200201  1  0
201202  1  0
202203  1  0
203204  1  0
204205  1  0
204206  2  0
201207  1  0
207208  2  0
207209  1  0
 20 71  2  0
  1210  1  0
  1211  1  0
  2212  1  0
  2213  1  0
  3214  1  0
  3215  1  0
  6216  1  0
  7217  1  6
  8218  1  0
  8219  1  0
  9220  1  0
 12221  1  0
 14222  1  0
 14223  1  0
 15224  1  0
 15225  1  0
 16226  1  0
 16227  1  0
 17228  1  0
 17229  1  0
 18230  1  0
 18231  1  0
 19232  1  0
 19233  1  0
 20234  1  0
 21235  1  0
 21236  1  0
 21237  1  0
 24238  1  0
 25239  1  1
 26240  1  0
 26241  1  0
 27242  1  0
 27243  1  0
 33244  1  0
 34245  1  1
 35246  1  0
 35247  1  0
 36248  1  0
 37249  1  0
 37250  1  0
 37251  1  0
 38252  1  0
 38253  1  0
 38254  1  0
 41255  1  0
 42256  1  1
 43257  1  0
 43258  1  0
 44259  1  0
 44260  1  0
 44261  1  0
 47262  1  0
 48263  1  1
 49264  1  0
 49265  1  0
 49266  1  0
 52267  1  0
 53268  1  1
 54269  1  0
 54270  1  0
 55271  1  0
 55272  1  0
 61273  1  0
 62274  1  1
 63275  1  0
 63276  1  0
 63277  1  0
 66278  1  0
 68279  1  0
 68280  1  0
 69281  1  0
 69282  1  0
 70283  1  0
 70284  1  0
 71285  1  0
 72286  1  0
 72287  1  0
 72288  1  0
 75289  1  0
 76290  1  1
 77291  1  0
 77292  1  0
 79293  1  0
 79294  1  0
 83295  1  0
 84296  1  6
 85297  1  0
 85298  1  0
 86299  1  0
 87300  1  0
 87301  1  0
 87302  1  0
 88303  1  0
 88304  1  0
 88305  1  0
 91306  1  0
 92307  1  1
 93308  1  0
 93309  1  0
 94310  1  0
 97311  1  0
 98312  1  6
 99313  1  1
100314  1  0
101315  1  0
101316  1  0
101317  1  0
104318  1  0
105319  1  1
106320  1  0
106321  1  0
107322  1  0
108323  1  0
108324  1  0
108325  1  0
109326  1  0
109327  1  0
109328  1  0
112329  1  0
113330  1  6
114331  1  0
114332  1  0
115333  1  0
116334  1  0
116335  1  0
116336  1  0
117337  1  0
117338  1  0
117339  1  0
120340  1  0
121341  1  1
122342  1  0
122343  1  0
123344  1  0
123345  1  0
129346  1  0
130347  1  6
131348  1  0
131349  1  0
133350  1  0
133351  1  0
137352  1  0
138353  1  1
139354  1  0
139355  1  0
139356  1  0
142357  1  0
143358  1  6
144359  1  1
145360  1  0
145361  1  0
145362  1  0
146363  1  0
146364  1  0
147365  1  0
147366  1  0
147367  1  0
150368  1  0
151369  1  1
152370  1  0
152371  1  0
153372  1  0
153373  1  0
155374  1  0
155375  1  0
159376  1  0
160377  1  6
161378  1  0
161379  1  0
167380  1  0
168381  1  1
169382  1  1
170383  1  0
171384  1  0
171385  1  0
171386  1  0
174387  1  0
175388  1  6
176389  1  0
176390  1  0
177391  1  0
177392  1  0
177393  1  0
180394  1  0
181395  1  1
182396  1  0
182397  1  0
183398  1  0
183399  1  0
184400  1  0
184401  1  0
185402  1  0
187403  1  0
187404  1  0
188405  1  0
188406  1  0
191407  1  0
192408  1  6
193409  1  0
193410  1  0
194411  1  0
194412  1  0
200413  1  0
201414  1  1
202415  1  0
202416  1  0
203417  1  0
203418  1  0
205419  1  0
205420  1  0
M  CHG  7  30  -1  58  -1 126  -1 164  -1 187   1 197  -1 209  -1
M  END
