
     RDKit          2D

390391  0  0  0  0  0  0  0  0999 V2000
  -32.0450   -9.8501    0.0000 N   0  0  0  0  0  0  0  0  0  0  0  0
  -30.6731   -9.2436    0.0000 C   0  0  0  0  0  0  0  0  0  0  0  0
  -30.5124   -7.7522    0.0000 C   0  0  0  0  0  0  0  0  0  0  0  0
  -29.1405   -7.1457    0.0000 C   0  0  0  0  0  0  0  0  0  0  0  0
  -28.2541   -7.9767    0.0000 O   0  0  0  0  0  0  0  0  0  0  0  0
  -28.9798   -5.6544    0.0000 N   0  0  0  0  0  0  0  0  0  0  0  0
  -27.6078   -5.0479    0.0000 C   0  0  0  0  0  0  0  0  0  0  0  0
  -27.2488   -6.5043    0.0000 C   0  0  0  0  0  0  0  0  0  0  0  0
  -25.8080   -6.9215    0.0000 C   0  0  0  0  0  0  0  0  0  0  0  0
  -25.4489   -8.3779    0.0000 C   0  0  0  0  0  0  0  0  0  0  0  0
  -24.3114   -6.8208    0.0000 C   0  0  0  0  0  0  0  0  0  0  0  0
  -26.5261   -4.0087    0.0000 C   0  0  0  0  0  0  0  0  0  0  0  0
  -25.5207   -4.4387    0.0000 O   0  0  0  0  0  0  0  0  0  0  0  0
  -26.8851   -2.5523    0.0000 N   0  0  0  0  0  0  0  0  0  0  0  0
  -25.8034   -1.5132    0.0000 C   0  0  0  0  0  0  0  0  0  0  0  0
  -24.9679   -2.7590    0.0000 C   0  0  0  0  0  0  0  0  0  0  0  0
  -23.4713   -2.6583    0.0000 C   0  0  0  0  0  0  0  0  0  0  0  0
  -22.6357   -3.9040    0.0000 C   0  0  0  0  0  0  0  0  0  0  0  0
  -22.0993   -2.0518    0.0000 C   0  0  0  0  0  0  0  0  0  0  0  0
  -25.1423   -0.1667    0.0000 C   0  0  0  0  0  0  0  0  0  0  0  0
  -23.6457   -0.0661    0.0000 O   0  0  0  0  0  0  0  0  0  0  0  0
  -25.9778    1.0790    0.0000 N   0  0  0  0  0  0  0  0  0  0  0  0
  -25.3167    2.4255    0.0000 C   0  0  0  0  0  0  0  0  0  0  0  0
  -26.7575    2.8427    0.0000 C   0  0  0  0  0  0  0  0  0  0  0  0
  -26.9363    4.3320    0.0000 C   0  0  0  0  0  0  0  0  0  0  0  0
  -28.2541    2.7420    0.0000 C   0  0  0  0  0  0  0  0  0  0  0  0
  -29.0896    3.9878    0.0000 C   0  0  0  0  0  0  0  0  0  0  0  0
  -24.2349    3.4646    0.0000 C   0  0  0  0  0  0  0  0  0  0  0  0
  -24.7688    4.8664    0.0000 O   0  0  0  0  0  0  0  0  0  0  0  0
  -22.7941    3.0474    0.0000 N   0  0  0  0  0  0  0  0  0  0  0  0
  -21.7124    4.0865    0.0000 C   0  0  0  0  0  0  0  0  0  0  0  0
  -22.9236    4.9714    0.0000 C   0  0  0  0  0  0  0  0  0  0  0  0
  -22.7629    6.4627    0.0000 C   0  0  0  0  0  0  0  0  0  0  0  0
  -23.9741    7.3476    0.0000 C   0  0  0  0  0  0  0  0  0  0  0  0
  -22.1017    7.8092    0.0000 C   0  0  0  0  0  0  0  0  0  0  0  0
  -20.3405    4.6930    0.0000 C   0  0  0  0  0  0  0  0  0  0  0  0
  -20.3627    6.1928    0.0000 O   0  0  0  0  0  0  0  0  0  0  0  0
  -19.1293    3.8081    0.0000 N   0  0  0  0  0  0  0  0  0  0  0  0
  -17.7573    4.4146    0.0000 C   0  0  0  0  0  0  0  0  0  0  0  0
  -18.5928    5.6604    0.0000 C   0  0  0  0  0  0  0  0  0  0  0  0
  -17.9317    7.0068    0.0000 C   0  0  0  0  0  0  0  0  0  0  0  0
  -18.7673    8.2526    0.0000 C   0  0  0  0  0  0  0  0  0  0  0  0
  -18.1061    9.5990    0.0000 N   0  0  0  0  0  0  0  0  0  0  0  0
  -20.2639    8.1519    0.0000 O   0  0  0  0  0  0  0  0  0  0  0  0
  -16.2607    4.5153    0.0000 C   0  0  0  0  0  0  0  0  0  0  0  0
  -15.7687    5.9323    0.0000 O   0  0  0  0  0  0  0  0  0  0  0  0
  -15.4252    3.2695    0.0000 N   0  0  0  0  0  0  0  0  0  0  0  0
  -13.9286    3.3702    0.0000 C   0  0  0  0  0  0  0  0  0  0  0  0
  -14.2876    4.8266    0.0000 C   0  0  0  0  0  0  0  0  0  0  0  0
  -13.2059    5.8658    0.0000 C   0  0  0  0  0  0  0  0  0  0  0  0
  -13.5649    7.3222    0.0000 C   0  0  0  0  0  0  0  0  0  0  0  0
  -12.4832    8.3613    0.0000 N   0  0  0  0  0  0  0  0  0  0  0  0
  -15.0057    7.7394    0.0000 O   0  0  0  0  0  0  0  0  0  0  0  0
  -12.4878    2.9530    0.0000 C   0  0  0  0  0  0  0  0  0  0  0  0
  -11.5408    4.1162    0.0000 O   0  0  0  0  0  0  0  0  0  0  0  0
  -12.1287    1.4966    0.0000 N   0  0  0  0  0  0  0  0  0  0  0  0
  -10.6879    1.0793    0.0000 C   0  0  0  0  0  0  0  0  0  0  0  0
  -10.5272    2.5707    0.0000 C   0  0  0  0  0  0  0  0  0  0  0  0
   -9.4768    0.1945    0.0000 C   0  0  0  0  0  0  0  0  0  0  0  0
   -8.1048    0.8010    0.0000 O   0  0  0  0  0  0  0  0  0  0  0  0
   -9.6375   -1.2969    0.0000 N   0  0  0  0  0  0  0  0  0  0  0  0
   -8.4263   -2.1818    0.0000 C   0  0  0  0  0  0  0  0  0  0  0  0
   -9.5080   -3.2209    0.0000 C   0  0  0  0  0  0  0  0  0  0  0  0
  -10.9488   -2.8037    0.0000 C   0  0  0  0  0  0  0  0  0  0  0  0
   -6.9855   -2.5990    0.0000 C   0  0  0  0  0  0  0  0  0  0  0  0
   -6.8066   -4.0883    0.0000 O   0  0  0  0  0  0  0  0  0  0  0  0
   -5.9037   -1.5599    0.0000 N   0  0  0  0  0  0  0  0  0  0  0  0
   -4.4629   -1.9771    0.0000 C   0  0  0  0  0  0  0  0  0  0  0  0
   -3.8224   -3.3335    0.0000 C   0  0  0  0  0  0  0  0  0  0  0  0
   -2.8106   -4.4408    0.0000 C   0  0  0  0  0  0  0  0  0  0  0  0
   -1.5173   -5.2007    0.0000 C   0  0  0  0  0  0  0  0  0  0  0  0
   -0.0575   -5.5456    0.0000 C   0  0  0  0  0  0  0  0  0  0  0  0
   -5.5677   -2.9917    0.0000 C   0  0  0  0  0  0  0  0  0  0  0  0
   -4.6752   -0.4922    0.0000 C   0  0  0  0  0  0  0  0  0  0  0  0
   -6.1626   -0.2980    0.0000 O   0  0  0  0  0  0  0  0  0  0  0  0
   -4.4403    0.9893    0.0000 N   0  0  0  0  0  0  0  0  0  0  0  0
   -3.7792    2.3357    0.0000 C   0  0  0  0  0  0  0  0  0  0  0  0
   -5.2784    2.3845    0.0000 C   0  0  0  0  0  0  0  0  0  0  0  0
   -5.9857    3.7073    0.0000 C   0  0  0  0  0  0  0  0  0  0  0  0
   -2.7506    3.4275    0.0000 C   0  0  0  0  0  0  0  0  0  0  0  0
   -3.6769    4.6073    0.0000 O   0  0  0  0  0  0  0  0  0  0  0  0
   -1.4459    4.1676    0.0000 N   0  0  0  0  0  0  0  0  0  0  0  0
    0.0190    4.4902    0.0000 C   0  0  0  0  0  0  0  0  0  0  0  0
   -0.8776    5.6928    0.0000 C   0  0  0  0  0  0  0  0  0  0  0  0
   -0.1209    6.9879    0.0000 C   0  0  0  0  0  0  0  0  0  0  0  0
   -2.1314    6.5162    0.0000 C   0  0  0  0  0  0  0  0  0  0  0  0
   -2.0452    8.0137    0.0000 C   0  0  0  0  0  0  0  0  0  0  0  0
    1.5139    4.3667    0.0000 C   0  0  0  0  0  0  0  0  0  0  0  0
    1.8588    5.8265    0.0000 O   0  0  0  0  0  0  0  0  0  0  0  0
    2.9060    3.8081    0.0000 N   0  0  0  0  0  0  0  0  0  0  0  0
    4.0716    2.8639    0.0000 C   0  0  0  0  0  0  0  0  0  0  0  0
    4.4528    4.3147    0.0000 C   0  0  0  0  0  0  0  0  0  0  0  0
    5.8998    4.7099    0.0000 C   0  0  0  0  0  0  0  0  0  0  0  0
    6.2810    6.1607    0.0000 C   0  0  0  0  0  0  0  0  0  0  0  0
    7.3947    4.5864    0.0000 C   0  0  0  0  0  0  0  0  0  0  0  0
    4.9071    1.6182    0.0000 C   0  0  0  0  0  0  0  0  0  0  0  0
    6.0682    2.5678    0.0000 O   0  0  0  0  0  0  0  0  0  0  0  0
    5.3383    0.1815    0.0000 N   0  0  0  0  0  0  0  0  0  0  0  0
    5.3269   -1.3185    0.0000 C   0  0  0  0  0  0  0  0  0  0  0  0
    4.8738   -2.7484    0.0000 C   0  0  0  0  0  0  0  0  0  0  0  0
    4.0194   -3.9813    0.0000 C   0  0  0  0  0  0  0  0  0  0  0  0
    2.8396   -4.9076    0.0000 C   0  0  0  0  0  0  0  0  0  0  0  0
    1.4391   -5.4449    0.0000 C   0  0  0  0  0  0  0  0  0  0  0  0
    6.4083   -0.1970    0.0000 C   0  0  0  0  0  0  0  0  0  0  0  0
    7.1438    0.8643    0.0000 C   0  0  0  0  0  0  0  0  0  0  0  0
    8.1595    1.6618    0.0000 C   0  0  0  0  0  0  0  0  0  0  0  0
    9.3652    2.1244    0.0000 C   0  0  0  0  0  0  0  0  0  0  0  0
    6.0084   -2.7194    0.0000 C   0  0  0  0  0  0  0  0  0  0  0  0
    3.8305   -3.0307    0.0000 O   0  0  0  0  0  0  0  0  0  0  0  0
    6.3796   -3.9562    0.0000 N   0  0  0  0  0  0  0  0  0  0  0  0
    7.0989   -5.0287    0.0000 C   0  0  0  0  0  0  0  0  0  0  0  0
    6.2009   -6.9516    0.0000 C   0  0  0  0  0  0  0  0  0  0  0  0
    7.2667   -8.0071    0.0000 C   0  0  0  0  0  0  0  0  0  0  0  0
    6.8855   -9.4579    0.0000 C   0  0  0  0  0  0  0  0  0  0  0  0
    8.5426   -8.7959    0.0000 C   0  0  0  0  0  0  0  0  0  0  0  0
    8.1023   -5.8415    0.0000 C   0  0  0  0  0  0  0  0  0  0  0  0
    7.5913   -7.1814    0.0000 O   0  0  0  0  0  0  0  0  0  0  0  0
    9.3008   -6.3224    0.0000 N   0  0  0  0  0  0  0  0  0  0  0  0
   10.5877   -6.4287    0.0000 C   0  0  0  0  0  0  0  0  0  0  0  0
   11.5313   -8.3297    0.0000 C   0  0  0  0  0  0  0  0  0  0  0  0
   10.9381   -9.7075    0.0000 C   0  0  0  0  0  0  0  0  0  0  0  0
   11.8347  -10.9100    0.0000 C   0  0  0  0  0  0  0  0  0  0  0  0
   11.2415  -12.2878    0.0000 O   0  0  0  0  0  0  0  0  0  0  0  0
   13.3244  -10.7349    0.0000 O   0  0  0  0  0  0  0  0  0  0  0  0
   11.8489   -6.1510    0.0000 C   0  0  0  0  0  0  0  0  0  0  0  0
   12.6370   -8.2050    0.0000 O   0  0  0  0  0  0  0  0  0  0  0  0
   12.9721   -5.5139    0.0000 N   0  0  0  0  0  0  0  0  0  0  0  0
   13.8576   -4.5740    0.0000 C   0  0  0  0  0  0  0  0  0  0  0  0
   15.9322   -5.0215    0.0000 C   0  0  0  0  0  0  0  0  0  0  0  0
   16.6395   -6.3443    0.0000 C   0  0  0  0  0  0  0  0  0  0  0  0
   18.1387   -6.3931    0.0000 C   0  0  0  0  0  0  0  0  0  0  0  0
   18.8460   -7.7158    0.0000 N   0  0  0  0  0  0  0  0  0  0  0  0
   18.9306   -5.1191    0.0000 O   0  0  0  0  0  0  0  0  0  0  0  0
   14.4267   -3.4148    0.0000 C   0  0  0  0  0  0  0  0  0  0  0  0
   16.5240   -4.0793    0.0000 O   0  0  0  0  0  0  0  0  0  0  0  0
   14.6289   -2.1394    0.0000 N   0  0  0  0  0  0  0  0  0  0  0  0
   14.4462   -0.8610    0.0000 C   0  0  0  0  0  0  0  0  0  0  0  0
   13.8948    0.3067    0.0000 C   0  0  0  0  0  0  0  0  0  0  0  0
   13.0237    1.2599    0.0000 C   0  0  0  0  0  0  0  0  0  0  0  0
   11.9103    1.9141    0.0000 C   0  0  0  0  0  0  0  0  0  0  0  0
   10.6536    2.2110    0.0000 C   0  0  0  0  0  0  0  0  0  0  0  0
   16.5575   -1.0771    0.0000 C   0  0  0  0  0  0  0  0  0  0  0  0
   16.0896    0.4819    0.0000 C   0  0  0  0  0  0  0  0  0  0  0  0
   15.9442    1.9748    0.0000 O   0  0  0  0  0  0  0  0  0  0  0  0
   17.5648    0.2101    0.0000 N   0  0  0  0  0  0  0  0  0  0  0  0
   18.5377    1.3518    0.0000 C   0  0  0  0  0  0  0  0  0  0  0  0
   19.0614    2.7574    0.0000 C   0  0  0  0  0  0  0  0  0  0  0  0
   20.4992    3.1851    0.0000 C   0  0  0  0  0  0  0  0  0  0  0  0
   20.0129    1.0801    0.0000 C   0  0  0  0  0  0  0  0  0  0  0  0
   20.5151   -0.3333    0.0000 O   0  0  0  0  0  0  0  0  0  0  0  0
   20.9858    2.2218    0.0000 N   0  0  0  0  0  0  0  0  0  0  0  0
   22.4609    1.9501    0.0000 C   0  0  0  0  0  0  0  0  0  0  0  0
   23.7542    1.1902    0.0000 C   0  0  0  0  0  0  0  0  0  0  0  0
   23.7428   -0.3098    0.0000 C   0  0  0  0  0  0  0  0  0  0  0  0
   25.0361   -1.0696    0.0000 C   0  0  0  0  0  0  0  0  0  0  0  0
   25.0247   -2.5696    0.0000 N   0  0  0  0  0  0  0  0  0  0  0  0
   26.3179   -3.3295    0.0000 C   0  0  0  0  0  0  0  0  0  0  0  0
   26.3065   -4.8294    0.0000 N   0  0  0  0  0  0  0  0  0  0  0  0
   27.6227   -2.5894    0.0000 N   0  0  0  0  0  0  0  0  0  0  0  0
   23.4339    3.0918    0.0000 C   0  0  0  0  0  0  0  0  0  0  0  0
   22.9316    4.5052    0.0000 O   0  0  0  0  0  0  0  0  0  0  0  0
   24.9090    2.8200    0.0000 N   0  0  0  0  0  0  0  0  0  0  0  0
   25.8819    3.9617    0.0000 C   0  0  0  0  0  0  0  0  0  0  0  0
   26.4057    5.3673    0.0000 C   0  0  0  0  0  0  0  0  0  0  0  0
   27.8849    5.6165    0.0000 C   0  0  0  0  0  0  0  0  0  0  0  0
   28.4086    7.0221    0.0000 C   0  0  0  0  0  0  0  0  0  0  0  0
   29.5732    7.3685    0.0000 O   0  0  0  0  0  0  0  0  0  0  0  0
   27.4532    8.1785    0.0000 O   0  0  0  0  0  0  0  0  0  0  0  0
   27.3571    3.6900    0.0000 C   0  0  0  0  0  0  0  0  0  0  0  0
   27.8594    2.2766    0.0000 O   0  0  0  0  0  0  0  0  0  0  0  0
   28.3300    4.8317    0.0000 N   0  0  0  0  0  0  0  0  0  0  0  0
   29.8052    4.5600    0.0000 C   0  0  0  0  0  0  0  0  0  0  0  0
   31.0985    3.8001    0.0000 C   0  0  0  0  0  0  0  0  0  0  0  0
   31.0871    2.3001    0.0000 C   0  0  0  0  0  0  0  0  0  0  0  0
   32.3804    1.5403    0.0000 C   0  0  0  0  0  0  0  0  0  0  0  0
   32.3689    0.0403    0.0000 N   0  0  0  0  0  0  0  0  0  0  0  0
   33.6622   -0.7196    0.0000 C   0  0  0  0  0  0  0  0  0  0  0  0
   33.6508   -2.2195    0.0000 N   0  0  0  0  0  0  0  0  0  0  0  0
   34.9669    0.0205    0.0000 N   0  0  0  0  0  0  0  0  0  0  0  0
   30.7781    5.7017    0.0000 C   0  0  0  0  0  0  0  0  0  0  0  0
   32.2754    5.6118    0.0000 O   0  0  0  0  0  0  0  0  0  0  0  0
   30.5139    6.8876    0.0000 O   0  0  0  0  0  0  0  0  0  0  0  0
  -32.2058  -11.3415    0.0000 H   0  0  0  0  0  0  0  0  0  0  0  0
  -33.2562   -8.9652    0.0000 H   0  0  0  0  0  0  0  0  0  0  0  0
  -30.3141  -10.7000    0.0000 H   0  0  0  0  0  0  0  0  0  0  0  0
  -29.1765   -9.1429    0.0000 H   0  0  0  0  0  0  0  0  0  0  0  0
  -32.0090   -7.8529    0.0000 H   0  0  0  0  0  0  0  0  0  0  0  0
  -30.8714   -6.2958    0.0000 H   0  0  0  0  0  0  0  0  0  0  0  0
  -30.1910   -4.7695    0.0000 H   0  0  0  0  0  0  0  0  0  0  0  0
  -28.4433   -3.8021    0.0000 H   0  0  0  0  0  0  0  0  0  0  0  0
  -27.3790   -7.7123    0.0000 H   0  0  0  0  0  0  0  0  0  0  0  0
  -28.2896   -6.8395    0.0000 H   0  0  0  0  0  0  0  0  0  0  0  0
  -25.6473   -5.4302    0.0000 H   0  0  0  0  0  0  0  0  0  0  0  0
  -24.0697   -8.9677    0.0000 H   0  0  0  0  0  0  0  0  0  0  0  0
  -25.6097   -9.8693    0.0000 H   0  0  0  0  0  0  0  0  0  0  0  0
  -26.9221   -8.6603    0.0000 H   0  0  0  0  0  0  0  0  0  0  0  0
  -23.3302   -7.9555    0.0000 H   0  0  0  0  0  0  0  0  0  0  0  0
  -22.9394   -6.2143    0.0000 H   0  0  0  0  0  0  0  0  0  0  0  0
  -24.6345   -5.5101    0.0000 H   0  0  0  0  0  0  0  0  0  0  0  0
  -28.3259   -2.1351    0.0000 H   0  0  0  0  0  0  0  0  0  0  0  0
  -27.0146   -0.6283    0.0000 H   0  0  0  0  0  0  0  0  0  0  0  0
  -24.6770   -3.9386    0.0000 H   0  0  0  0  0  0  0  0  0  0  0  0
  -26.1523   -3.6794    0.0000 H   0  0  0  0  0  0  0  0  0  0  0  0
  -23.8303   -1.2019    0.0000 H   0  0  0  0  0  0  0  0  0  0  0  0
  -21.1380   -3.9865    0.0000 H   0  0  0  0  0  0  0  0  0  0  0  0
  -22.2767   -5.3604    0.0000 H   0  0  0  0  0  0  0  0  0  0  0  0
  -23.9235   -4.6732    0.0000 H   0  0  0  0  0  0  0  0  0  0  0  0
  -20.7893   -2.7824    0.0000 H   0  0  0  0  0  0  0  0  0  0  0  0
  -21.0176   -1.0126    0.0000 H   0  0  0  0  0  0  0  0  0  0  0  0
  -22.9348   -0.8060    0.0000 H   0  0  0  0  0  0  0  0  0  0  0  0
  -27.4056    0.6192    0.0000 H   0  0  0  0  0  0  0  0  0  0  0  0
  -24.1055    1.5406    0.0000 H   0  0  0  0  0  0  0  0  0  0  0  0
  -27.0988    1.3821    0.0000 H   0  0  0  0  0  0  0  0  0  0  0  0
  -28.4984    4.9111    0.0000 H   0  0  0  0  0  0  0  0  0  0  0  0
  -26.9558    5.7905    0.0000 H   0  0  0  0  0  0  0  0  0  0  0  0
  -25.6199    4.3998    0.0000 H   0  0  0  0  0  0  0  0  0  0  0  0
  -29.6260    2.1355    0.0000 H   0  0  0  0  0  0  0  0  0  0  0  0
  -28.0753    1.2527    0.0000 H   0  0  0  0  0  0  0  0  0  0  0  0
  -30.5862    3.8871    0.0000 H   0  0  0  0  0  0  0  0  0  0  0  0
  -29.4487    5.4442    0.0000 H   0  0  0  0  0  0  0  0  0  0  0  0
  -27.9052    4.9082    0.0000 H   0  0  0  0  0  0  0  0  0  0  0  0
  -22.4351    1.5910    0.0000 H   0  0  0  0  0  0  0  0  0  0  0  0
  -20.8769    2.8407    0.0000 H   0  0  0  0  0  0  0  0  0  0  0  0
  -24.3644    5.3886    0.0000 H   0  0  0  0  0  0  0  0  0  0  0  0
  -23.8908    3.8249    0.0000 H   0  0  0  0  0  0  0  0  0  0  0  0
  -21.3221    6.0455    0.0000 H   0  0  0  0  0  0  0  0  0  0  0  0
  -23.9963    8.8474    0.0000 H   0  0  0  0  0  0  0  0  0  0  0  0
  -25.4149    7.7649    0.0000 H   0  0  0  0  0  0  0  0  0  0  0  0
  -24.7944    6.0918    0.0000 H   0  0  0  0  0  0  0  0  0  0  0  0
  -22.7792    9.1475    0.0000 H   0  0  0  0  0  0  0  0  0  0  0  0
  -21.0200    8.8483    0.0000 H   0  0  0  0  0  0  0  0  0  0  0  0
  -20.8906    6.9243    0.0000 H   0  0  0  0  0  0  0  0  0  0  0  0
  -19.2900    2.3168    0.0000 H   0  0  0  0  0  0  0  0  0  0  0  0
  -17.3983    2.9582    0.0000 H   0  0  0  0  0  0  0  0  0  0  0  0
  -19.6872    6.6863    0.0000 H   0  0  0  0  0  0  0  0  0  0  0  0
  -19.8939    4.9139    0.0000 H   0  0  0  0  0  0  0  0  0  0  0  0
  -16.8500    8.0460    0.0000 H   0  0  0  0  0  0  0  0  0  0  0  0
  -16.7205    6.1220    0.0000 H   0  0  0  0  0  0  0  0  0  0  0  0
  -18.9417   10.8448    0.0000 H   0  0  0  0  0  0  0  0  0  0  0  0
  -16.6095    9.6997    0.0000 H   0  0  0  0  0  0  0  0  0  0  0  0
  -16.0863    1.9231    0.0000 H   0  0  0  0  0  0  0  0  0  0  0  0
  -14.0893    1.8789    0.0000 H   0  0  0  0  0  0  0  0  0  0  0  0
  -14.9651    6.1649    0.0000 H   0  0  0  0  0  0  0  0  0  0  0  0
  -15.7655    4.5701    0.0000 H   0  0  0  0  0  0  0  0  0  0  0  0
  -11.8340    6.4723    0.0000 H   0  0  0  0  0  0  0  0  0  0  0  0
  -12.3704    4.6200    0.0000 H   0  0  0  0  0  0  0  0  0  0  0  0
  -12.8422    9.8177    0.0000 H   0  0  0  0  0  0  0  0  0  0  0  0
  -11.0424    7.9441    0.0000 H   0  0  0  0  0  0  0  0  0  0  0  0
  -13.2105    0.4574    0.0000 H   0  0  0  0  0  0  0  0  0  0  0  0
  -11.3491   -0.2671    0.0000 H   0  0  0  0  0  0  0  0  0  0  0  0
  -11.6215    3.5966    0.0000 H   0  0  0  0  0  0  0  0  0  0  0  0
   -9.8661    3.9172    0.0000 H   0  0  0  0  0  0  0  0  0  0  0  0
   -9.0864    2.1534    0.0000 H   0  0  0  0  0  0  0  0  0  0  0  0
  -11.0731   -1.7316    0.0000 H   0  0  0  0  0  0  0  0  0  0  0  0
   -7.7652   -0.8353    0.0000 H   0  0  0  0  0  0  0  0  0  0  0  0
  -10.1691   -4.5674    0.0000 H   0  0  0  0  0  0  0  0  0  0  0  0
   -8.2968   -4.1058    0.0000 H   0  0  0  0  0  0  0  0  0  0  0  0
  -12.0306   -3.8428    0.0000 H   0  0  0  0  0  0  0  0  0  0  0  0
  -12.1600   -1.9188    0.0000 H   0  0  0  0  0  0  0  0  0  0  0  0
  -10.8143   -1.3097    0.0000 H   0  0  0  0  0  0  0  0  0  0  0  0
   -6.4376   -0.1581    0.0000 H   0  0  0  0  0  0  0  0  0  0  0  0
   -4.4156   -4.7112    0.0000 H   0  0  0  0  0  0  0  0  0  0  0  0
   -5.3078   -3.5421    0.0000 H   0  0  0  0  0  0  0  0  0  0  0  0
   -3.1519   -5.9015    0.0000 H   0  0  0  0  0  0  0  0  0  0  0  0
   -4.1685   -5.0780    0.0000 H   0  0  0  0  0  0  0  0  0  0  0  0
   -1.2313   -6.6732    0.0000 H   0  0  0  0  0  0  0  0  0  0  0  0
   -2.6271   -6.2098    0.0000 H   0  0  0  0  0  0  0  0  0  0  0  0
   -0.1810   -7.0405    0.0000 H   0  0  0  0  0  0  0  0  0  0  0  0
   -6.9061   -3.1764    0.0000 H   0  0  0  0  0  0  0  0  0  0  0  0
   -5.7698   -4.5607    0.0000 H   0  0  0  0  0  0  0  0  0  0  0  0
   -4.5552   -4.3306    0.0000 H   0  0  0  0  0  0  0  0  0  0  0  0
   -5.8703    1.4423    0.0000 H   0  0  0  0  0  0  0  0  0  0  0  0
   -4.1780    3.7817    0.0000 H   0  0  0  0  0  0  0  0  0  0  0  0
   -6.7039    1.9177    0.0000 H   0  0  0  0  0  0  0  0  0  0  0  0
   -5.4318    0.8924    0.0000 H   0  0  0  0  0  0  0  0  0  0  0  0
   -7.4849    3.7561    0.0000 H   0  0  0  0  0  0  0  0  0  0  0  0
   -6.1980    5.1922    0.0000 H   0  0  0  0  0  0  0  0  0  0  0  0
   -4.6278    4.3445    0.0000 H   0  0  0  0  0  0  0  0  0  0  0  0
   -2.1499    5.4921    0.0000 H   0  0  0  0  0  0  0  0  0  0  0  0
    0.9009    5.7036    0.0000 H   0  0  0  0  0  0  0  0  0  0  0  0
   -2.1398    4.8823    0.0000 H   0  0  0  0  0  0  0  0  0  0  0  0
   -1.0164    8.3927    0.0000 H   0  0  0  0  0  0  0  0  0  0  0  0
    0.7442    8.1623    0.0000 H   0  0  0  0  0  0  0  0  0  0  0  0
    1.0604    6.4061    0.0000 H   0  0  0  0  0  0  0  0  0  0  0  0
   -3.5912    6.8611    0.0000 H   0  0  0  0  0  0  0  0  0  0  0  0
   -2.8881    5.2210    0.0000 H   0  0  0  0  0  0  0  0  0  0  0  0
   -3.2990    8.8371    0.0000 H   0  0  0  0  0  0  0  0  0  0  0  0
   -1.4520    9.3914    0.0000 H   0  0  0  0  0  0  0  0  0  0  0  0
   -0.5453    8.0323    0.0000 H   0  0  0  0  0  0  0  0  0  0  0  0
    3.6659    5.1014    0.0000 H   0  0  0  0  0  0  0  0  0  0  0  0
    5.5507    3.1131    0.0000 H   0  0  0  0  0  0  0  0  0  0  0  0
    4.1338    5.7804    0.0000 H   0  0  0  0  0  0  0  0  0  0  0  0
    3.0322    4.7962    0.0000 H   0  0  0  0  0  0  0  0  0  0  0  0
    6.2188    3.2442    0.0000 H   0  0  0  0  0  0  0  0  0  0  0  0
    7.6690    6.7294    0.0000 H   0  0  0  0  0  0  0  0  0  0  0  0
    6.1430    7.6543    0.0000 H   0  0  0  0  0  0  0  0  0  0  0  0
    4.8123    6.4655    0.0000 H   0  0  0  0  0  0  0  0  0  0  0  0
    8.3930    5.7060    0.0000 H   0  0  0  0  0  0  0  0  0  0  0  0
    8.8685    4.3074    0.0000 H   0  0  0  0  0  0  0  0  0  0  0  0
    6.6738    3.2710    0.0000 H   0  0  0  0  0  0  0  0  0  0  0  0
    6.8232    0.3937    0.0000 H   0  0  0  0  0  0  0  0  0  0  0  0
    6.3636   -2.5733    0.0000 H   0  0  0  0  0  0  0  0  0  0  0  0
    5.4837   -4.1188    0.0000 H   0  0  0  0  0  0  0  0  0  0  0  0
    5.2992   -4.7637    0.0000 H   0  0  0  0  0  0  0  0  0  0  0  0
    4.1983   -5.4706    0.0000 H   0  0  0  0  0  0  0  0  0  0  0  0
    3.9616   -5.9031    0.0000 H   0  0  0  0  0  0  0  0  0  0  0  0
    2.7534   -6.4051    0.0000 H   0  0  0  0  0  0  0  0  0  0  0  0
    1.7618   -6.9098    0.0000 H   0  0  0  0  0  0  0  0  0  0  0  0
    4.2902   -0.0637    0.0000 H   0  0  0  0  0  0  0  0  0  0  0  0
    5.1700    1.4819    0.0000 H   0  0  0  0  0  0  0  0  0  0  0  0
    5.3545    2.1268    0.0000 H   0  0  0  0  0  0  0  0  0  0  0  0
    6.4555    2.8337    0.0000 H   0  0  0  0  0  0  0  0  0  0  0  0
    6.4846    2.9651    0.0000 H   0  0  0  0  0  0  0  0  0  0  0  0
    8.0822    3.7465    0.0000 H   0  0  0  0  0  0  0  0  0  0  0  0
    9.0729    4.3013    0.0000 H   0  0  0  0  0  0  0  0  0  0  0  0
    4.5856   -5.2048    0.0000 H   0  0  0  0  0  0  0  0  0  0  0  0
    5.1030   -5.7501    0.0000 H   0  0  0  0  0  0  0  0  0  0  0  0
    5.2026   -8.0712    0.0000 H   0  0  0  0  0  0  0  0  0  0  0  0
    4.7721   -6.4951    0.0000 H   0  0  0  0  0  0  0  0  0  0  0  0
    8.3941   -7.0176    0.0000 H   0  0  0  0  0  0  0  0  0  0  0  0
    7.8147  -10.6354    0.0000 H   0  0  0  0  0  0  0  0  0  0  0  0
    6.0311  -10.6908    0.0000 H   0  0  0  0  0  0  0  0  0  0  0  0
    5.4567   -9.0013    0.0000 H   0  0  0  0  0  0  0  0  0  0  0  0
    8.9483  -10.1002    0.0000 H   0  0  0  0  0  0  0  0  0  0  0  0
   10.1242   -8.7580    0.0000 H   0  0  0  0  0  0  0  0  0  0  0  0
    9.3502   -7.3191    0.0000 H   0  0  0  0  0  0  0  0  0  0  0  0
    8.9754   -8.4946    0.0000 H   0  0  0  0  0  0  0  0  0  0  0  0
    9.9073   -8.4390    0.0000 H   0  0  0  0  0  0  0  0  0  0  0  0
   12.7851   -9.1531    0.0000 H   0  0  0  0  0  0  0  0  0  0  0  0
   12.7935   -7.5193    0.0000 H   0  0  0  0  0  0  0  0  0  0  0  0
    9.9095  -10.7992    0.0000 H   0  0  0  0  0  0  0  0  0  0  0  0
    9.6843   -8.8841    0.0000 H   0  0  0  0  0  0  0  0  0  0  0  0
   14.3306   -7.2443    0.0000 H   0  0  0  0  0  0  0  0  0  0  0  0
   14.8318   -6.4187    0.0000 H   0  0  0  0  0  0  0  0  0  0  0  0
   17.3576   -4.5546    0.0000 H   0  0  0  0  0  0  0  0  0  0  0  0
   16.0855   -3.5294    0.0000 H   0  0  0  0  0  0  0  0  0  0  0  0
   16.8517   -7.8292    0.0000 H   0  0  0  0  0  0  0  0  0  0  0  0
   15.2815   -6.9814    0.0000 H   0  0  0  0  0  0  0  0  0  0  0  0
   20.3452   -7.7647    0.0000 H   0  0  0  0  0  0  0  0  0  0  0  0
   18.0541   -8.9898    0.0000 H   0  0  0  0  0  0  0  0  0  0  0  0
   16.8289   -2.1562    0.0000 H   0  0  0  0  0  0  0  0  0  0  0  0
   15.0693    2.0743    0.0000 H   0  0  0  0  0  0  0  0  0  0  0  0
   15.9251    1.0847    0.0000 H   0  0  0  0  0  0  0  0  0  0  0  0
   13.8056    3.2645    0.0000 H   0  0  0  0  0  0  0  0  0  0  0  0
   14.7345    2.6018    0.0000 H   0  0  0  0  0  0  0  0  0  0  0  0
   11.8850    4.0362    0.0000 H   0  0  0  0  0  0  0  0  0  0  0  0
   13.2808    3.5729    0.0000 H   0  0  0  0  0  0  0  0  0  0  0  0
   10.8347    4.4036    0.0000 H   0  0  0  0  0  0  0  0  0  0  0  0
   17.8585   -0.3306    0.0000 H   0  0  0  0  0  0  0  0  0  0  0  0
   17.6518   -2.1030    0.0000 H   0  0  0  0  0  0  0  0  0  0  0  0
   16.2418   -2.5435    0.0000 H   0  0  0  0  0  0  0  0  0  0  0  0
   18.2356   -1.1315    0.0000 H   0  0  0  0  0  0  0  0  0  0  0  0
   17.2444    2.1117    0.0000 H   0  0  0  0  0  0  0  0  0  0  0  0
   19.0729    4.2574    0.0000 H   0  0  0  0  0  0  0  0  0  0  0  0
   17.5862    3.0291    0.0000 H   0  0  0  0  0  0  0  0  0  0  0  0
   21.0643    4.4122    0.0000 H   0  0  0  0  0  0  0  0  0  0  0  0
   22.0158    2.7349    0.0000 H   0  0  0  0  0  0  0  0  0  0  0  0
   21.2348    1.6770    0.0000 H   0  0  0  0  0  0  0  0  0  0  0  0
   20.6595    3.6859    0.0000 H   0  0  0  0  0  0  0  0  0  0  0  0
   21.7698    0.6188    0.0000 H   0  0  0  0  0  0  0  0  0  0  0  0
   25.2294    0.9185    0.0000 H   0  0  0  0  0  0  0  0  0  0  0  0
   24.6025    2.4273    0.0000 H   0  0  0  0  0  0  0  0  0  0  0  0
   23.2190   -1.7153    0.0000 H   0  0  0  0  0  0  0  0  0  0  0  0
   22.2455   -0.2199    0.0000 H   0  0  0  0  0  0  0  0  0  0  0  0
   26.5113   -1.3414    0.0000 H   0  0  0  0  0  0  0  0  0  0  0  0
   25.7273    0.2616    0.0000 H   0  0  0  0  0  0  0  0  0  0  0  0
   23.7199   -3.3097    0.0000 H   0  0  0  0  0  0  0  0  0  0  0  0
   27.5998   -5.5893    0.0000 H   0  0  0  0  0  0  0  0  0  0  0  0
   25.0018   -5.5695    0.0000 H   0  0  0  0  0  0  0  0  0  0  0  0
   28.9159   -3.3493    0.0000 H   0  0  0  0  0  0  0  0  0  0  0  0
   27.6341   -1.0894    0.0000 H   0  0  0  0  0  0  0  0  0  0  0  0
   25.5799    1.4784    0.0000 H   0  0  0  0  0  0  0  0  0  0  0  0
   24.5887    4.7216    0.0000 H   0  0  0  0  0  0  0  0  0  0  0  0
   26.4171    6.8673    0.0000 H   0  0  0  0  0  0  0  0  0  0  0  0
   24.9305    5.6390    0.0000 H   0  0  0  0  0  0  0  0  0  0  0  0
   29.3600    5.3448    0.0000 H   0  0  0  0  0  0  0  0  0  0  0  0
   28.5791    4.2868    0.0000 H   0  0  0  0  0  0  0  0  0  0  0  0
   28.1847    6.3246    0.0000 H   0  0  0  0  0  0  0  0  0  0  0  0
   29.1140    3.2287    0.0000 H   0  0  0  0  0  0  0  0  0  0  0  0
   32.5958    3.7102    0.0000 H   0  0  0  0  0  0  0  0  0  0  0  0
   31.7897    5.1314    0.0000 H   0  0  0  0  0  0  0  0  0  0  0  0
   30.5633    0.8945    0.0000 H   0  0  0  0  0  0  0  0  0  0  0  0
   29.5898    2.3900    0.0000 H   0  0  0  0  0  0  0  0  0  0  0  0
   33.8555    1.2685    0.0000 H   0  0  0  0  0  0  0  0  0  0  0  0
   33.0716    2.8715    0.0000 H   0  0  0  0  0  0  0  0  0  0  0  0
   31.0642   -0.6998    0.0000 H   0  0  0  0  0  0  0  0  0  0  0  0
   34.9441   -2.9794    0.0000 H   0  0  0  0  0  0  0  0  0  0  0  0
   32.3461   -2.9596    0.0000 H   0  0  0  0  0  0  0  0  0  0  0  0
   36.2602   -0.7394    0.0000 H   0  0  0  0  0  0  0  0  0  0  0  0
   34.9784    1.5205    0.0000 H   0  0  0  0  0  0  0  0  0  0  0  0
  1  2  1  0
  2  3  1  0
  3  4  1  0
  4  5  2  0
  4  6  1  0
  6  7  1  0
  7  8  1  0
  8  9  1  0
  9 10  1  0
  9 11  1  0
  7 12  1  0
 12 13  2  0
 12 14  1  0
 14 15  1  0
 15 16  1  0
 16 17  1  0
 17 18  1  0
 17 19  1  0
 15 20  1  0
 20 21  2  0
 20 22  1  0
 22 23  1  0
 23 24  1  0
 24 25  1  0
 24 26  1  0
 26 27  1  0
 23 28  1  0
 28 29  2  0
 28 30  1  0
 30 31  1  0
 31 32  1  0
 32 33  1  0
 33 34  1  0
 33 35  1  0
 31 36  1  0
 36 37  2  0
 36 38  1  0
 38 39  1  0
 39 40  1  0
 40 41  1  0
 41 42  1  0
 42 43  1  0
 42 44  2  0
 39 45  1  0
 45 46  2  0
 45 47  1  0
 47 48  1  0
 48 49  1  0
 49 50  1  0
 50 51  1  0
 51 52  1  0
 51 53  2  0
 48 54  1  0
 54 55  2  0
 54 56  1  0
 56 57  1  0
 57 58  1  0
 57 59  1  0
 59 60  2  0
 59 61  1  0
 61 62  1  0
 62 63  1  0
 63 64  1  0
 62 65  1  0
 65 66  2  0
 65 67  1  0
 68 67  1  6
 68 69  1  0
 69 70  1  0
 70 71  1  0
 71 72  1  0
 68 73  1  0
 68 74  1  0
 74 75  2  0
 74 76  1  0
 76 77  1  0
 77 78  1  0
 78 79  1  0
 77 80  1  0
 80 81  2  0
 80 82  1  0
 82 83  1  0
 83 84  1  0
 84 85  1  0
 84 86  1  0
 86 87  1  0
 83 88  1  0
 88 89  2  0
 88 90  1  0
 90 91  1  0
 91 92  1  0
 92 93  1  0
 93 94  1  0
 93 95  1  0
 91 96  1  0
 96 97  2  0
 96 98  1  0
 98 99  1  0
 99100  1  0
100101  1  0
101102  1  0
102103  1  0
 99104  1  0
104105  1  0
105106  1  0
106107  1  0
 99108  1  0
108109  2  0
108110  1  0
110111  1  0
111112  1  0
112113  1  0
113114  1  0
113115  1  0
111116  1  0
116117  2  0
116118  1  0
118119  1  0
119120  1  0
120121  1  0
121122  1  0
122123  2  0
122124  1  0
119125  1  0
125126  2  0
125127  1  0
127128  1  0
128129  1  0
129130  1  0
130131  1  0
131132  1  0
131133  2  0
128134  1  0
134135  2  0
134136  1  0
136137  1  0
137138  1  0
138139  1  0
139140  1  0
140141  1  0
137142  1  0
137143  1  6
143144  2  0
143145  1  0
145146  1  0
146147  1  0
147148  1  0
146149  1  0
149150  2  0
149151  1  0
151152  1  0
152153  1  0
153154  1  0
154155  1  0
155156  1  0
156157  1  0
157158  2  3
157159  1  0
152160  1  0
160161  2  0
160162  1  0
162163  1  0
163164  1  0
164165  1  0
165166  1  0
166167  2  0
166168  1  0
163169  1  0
169170  2  0
169171  1  0
171172  1  0
172173  1  0
173174  1  0
174175  1  0
175176  1  0
176177  1  0
177178  2  3
177179  1  0
172180  1  0
180181  2  0
180182  1  0
 72103  2  0
107141  2  0
  1183  1  0
  1184  1  0
  2185  1  0
  2186  1  0
  3187  1  0
  3188  1  0
  6189  1  0
  7190  1  6
  8191  1  0
  8192  1  0
  9193  1  0
 10194  1  0
 10195  1  0
 10196  1  0
 11197  1  0
 11198  1  0
 11199  1  0
 14200  1  0
 15201  1  6
 16202  1  0
 16203  1  0
 17204  1  0
 18205  1  0
 18206  1  0
 18207  1  0
 19208  1  0
 19209  1  0
 19210  1  0
 22211  1  0
 23212  1  1
 24213  1  1
 25214  1  0
 25215  1  0
 25216  1  0
 26217  1  0
 26218  1  0
 27219  1  0
 27220  1  0
 27221  1  0
 30222  1  0
 31223  1  1
 32224  1  0
 32225  1  0
 33226  1  0
 34227  1  0
 34228  1  0
 34229  1  0
 35230  1  0
 35231  1  0
 35232  1  0
 38233  1  0
 39234  1  1
 40235  1  0
 40236  1  0
 41237  1  0
 41238  1  0
 43239  1  0
 43240  1  0
 47241  1  0
 48242  1  1
 49243  1  0
 49244  1  0
 50245  1  0
 50246  1  0
 52247  1  0
 52248  1  0
 56249  1  0
 57250  1  1
 58251  1  0
 58252  1  0
 58253  1  0
 61254  1  0
 62255  1  6
 63256  1  0
 63257  1  0
 64258  1  0
 64259  1  0
 64260  1  0
 67261  1  0
 69262  1  0
 69263  1  0
 70264  1  0
 70265  1  0
 71266  1  0
 71267  1  0
 72268  1  0
 73269  1  0
 73270  1  0
 73271  1  0
 76272  1  0
 77273  1  1
 78274  1  0
 78275  1  0
 79276  1  0
 79277  1  0
 79278  1  0
 82279  1  0
 83280  1  1
 84281  1  1
 85282  1  0
 85283  1  0
 85284  1  0
 86285  1  0
 86286  1  0
 87287  1  0
 87288  1  0
 87289  1  0
 90290  1  0
 91291  1  1
 92292  1  0
 92293  1  0
 93294  1  0
 94295  1  0
 94296  1  0
 94297  1  0
 95298  1  0
 95299  1  0
 95300  1  0
 98301  1  0
100302  1  0
100303  1  0
101304  1  0
101305  1  0
102306  1  0
102307  1  0
103308  1  0
104309  1  0
104310  1  0
105311  1  0
105312  1  0
106313  1  0
106314  1  0
107315  1  0
110316  1  0
111317  1  6
112318  1  0
112319  1  0
113320  1  0
114321  1  0
114322  1  0
114323  1  0
115324  1  0
115325  1  0
115326  1  0
118327  1  0
119328  1  6
120329  1  0
120330  1  0
121331  1  0
121332  1  0
127333  1  0
128334  1  6
129335  1  0
129336  1  0
130337  1  0
130338  1  0
132339  1  0
132340  1  0
136341  1  0
138342  1  0
138343  1  0
139344  1  0
139345  1  0
140346  1  0
140347  1  0
141348  1  0
142349  1  0
142350  1  0
142351  1  0
145352  1  0
146353  1  1
147354  1  0
147355  1  0
148356  1  0
148357  1  0
148358  1  0
151359  1  0
152360  1  6
153361  1  0
153362  1  0
154363  1  0
154364  1  0
155365  1  0
155366  1  0
156367  1  0
158368  1  0
158369  1  0
159370  1  0
159371  1  0
162372  1  0
163373  1  1
164374  1  0
164375  1  0
165376  1  0
165377  1  0
171378  1  0
172379  1  6
173380  1  0
173381  1  0
174382  1  0
174383  1  0
175384  1  0
175385  1  0
176386  1  0
178387  1  0
178388  1  0
179389  1  0
179390  1  0
M  CHG  5 124  -1 158   1 168  -1 178   1 182  -1
M  END
