
     RDKit          2D

297300  0  0  0  0  0  0  0  0999 V2000
  -18.4882   -6.4510    0.0000 N   0  0  0  0  0  0  0  0  0  0  0  0
  -16.9924   -6.3388    0.0000 C   0  0  0  0  0  0  0  0  0  0  0  0
  -16.3416   -4.9873    0.0000 C   0  0  0  0  0  0  0  0  0  0  0  0
  -14.8458   -4.8751    0.0000 C   0  0  0  0  0  0  0  0  0  0  0  0
  -14.1581   -6.2082    0.0000 O   0  0  0  0  0  0  0  0  0  0  0  0
  -14.1951   -3.5236    0.0000 N   0  0  0  0  0  0  0  0  0  0  0  0
  -12.6993   -3.4114    0.0000 C   0  0  0  0  0  0  0  0  0  0  0  0
  -11.6254   -4.4587    0.0000 C   0  0  0  0  0  0  0  0  0  0  0  0
  -10.2906   -5.1429    0.0000 C   0  0  0  0  0  0  0  0  0  0  0  0
   -8.8134   -5.4032    0.0000 C   0  0  0  0  0  0  0  0  0  0  0  0
   -7.3250   -5.2166    0.0000 C   0  0  0  0  0  0  0  0  0  0  0  0
  -13.3802   -4.7479    0.0000 C   0  0  0  0  0  0  0  0  0  0  0  0
  -13.4168   -2.0941    0.0000 C   0  0  0  0  0  0  0  0  0  0  0  0
  -14.2798   -2.2934    0.0000 O   0  0  0  0  0  0  0  0  0  0  0  0
  -13.7141   -0.6239    0.0000 N   0  0  0  0  0  0  0  0  0  0  0  0
  -13.5649    0.8687    0.0000 C   0  0  0  0  0  0  0  0  0  0  0  0
  -14.9868    0.3909    0.0000 C   0  0  0  0  0  0  0  0  0  0  0  0
  -16.1115    1.3833    0.0000 C   0  0  0  0  0  0  0  0  0  0  0  0
  -17.5334    0.9055    0.0000 C   0  0  0  0  0  0  0  0  0  0  0  0
  -18.6581    1.8979    0.0000 N   0  0  0  0  0  0  0  0  0  0  0  0
  -20.0800    1.4201    0.0000 C   0  0  0  0  0  0  0  0  0  0  0  0
  -21.2047    2.4125    0.0000 N   0  0  0  0  0  0  0  0  0  0  0  0
  -20.3771   -0.0502    0.0000 N   0  0  0  0  0  0  0  0  0  0  0  0
  -12.9823    2.2510    0.0000 C   0  0  0  0  0  0  0  0  0  0  0  0
  -14.2623    3.0330    0.0000 O   0  0  0  0  0  0  0  0  0  0  0  0
  -12.0183    3.4001    0.0000 N   0  0  0  0  0  0  0  0  0  0  0  0
  -10.7583    4.2140    0.0000 C   0  0  0  0  0  0  0  0  0  0  0  0
  -12.0184    5.0277    0.0000 C   0  0  0  0  0  0  0  0  0  0  0  0
  -11.9437    6.5259    0.0000 C   0  0  0  0  0  0  0  0  0  0  0  0
  -13.2038    7.3396    0.0000 C   0  0  0  0  0  0  0  0  0  0  0  0
  -13.1292    8.8377    0.0000 N   0  0  0  0  0  0  0  0  0  0  0  0
  -14.3893    9.6515    0.0000 C   0  0  0  0  0  0  0  0  0  0  0  0
  -14.3146   11.1496    0.0000 N   0  0  0  0  0  0  0  0  0  0  0  0
  -15.7240    8.9670    0.0000 N   0  0  0  0  0  0  0  0  0  0  0  0
   -9.3144    4.6204    0.0000 C   0  0  0  0  0  0  0  0  0  0  0  0
   -9.6810    6.0749    0.0000 O   0  0  0  0  0  0  0  0  0  0  0  0
   -7.8148    4.5831    0.0000 N   0  0  0  0  0  0  0  0  0  0  0  0
   -6.3929    4.1055    0.0000 C   0  0  0  0  0  0  0  0  0  0  0  0
   -6.5424    5.5980    0.0000 C   0  0  0  0  0  0  0  0  0  0  0  0
   -7.9097    6.2148    0.0000 C   0  0  0  0  0  0  0  0  0  0  0  0
   -8.0591    7.7074    0.0000 C   0  0  0  0  0  0  0  0  0  0  0  0
   -9.4264    8.3242    0.0000 N   0  0  0  0  0  0  0  0  0  0  0  0
   -6.8413    8.5831    0.0000 O   0  0  0  0  0  0  0  0  0  0  0  0
   -5.1749    3.2299    0.0000 C   0  0  0  0  0  0  0  0  0  0  0  0
   -4.7546    4.6698    0.0000 O   0  0  0  0  0  0  0  0  0  0  0  0
   -4.2691    2.0343    0.0000 N   0  0  0  0  0  0  0  0  0  0  0  0
   -3.7560    0.6248    0.0000 C   0  0  0  0  0  0  0  0  0  0  0  0
   -3.6811   -0.8733    0.0000 C   0  0  0  0  0  0  0  0  0  0  0  0
   -4.0511   -2.3270    0.0000 C   0  0  0  0  0  0  0  0  0  0  0  0
   -4.8332   -3.6070    0.0000 C   0  0  0  0  0  0  0  0  0  0  0  0
   -5.9578   -4.5996    0.0000 C   0  0  0  0  0  0  0  0  0  0  0  0
   -3.2123    2.1231    0.0000 C   0  0  0  0  0  0  0  0  0  0  0  0
   -3.0948    3.4849    0.0000 C   0  0  0  0  0  0  0  0  0  0  0  0
   -2.7217    4.7999    0.0000 C   0  0  0  0  0  0  0  0  0  0  0  0
   -2.1064    6.0206    0.0000 C   0  0  0  0  0  0  0  0  0  0  0  0
   -2.6728   -0.5444    0.0000 C   0  0  0  0  0  0  0  0  0  0  0  0
   -4.7077   -1.3807    0.0000 O   0  0  0  0  0  0  0  0  0  0  0  0
   -2.0354   -1.7536    0.0000 N   0  0  0  0  0  0  0  0  0  0  0  0
   -1.1806   -2.8203    0.0000 C   0  0  0  0  0  0  0  0  0  0  0  0
   -2.0462   -4.7633    0.0000 C   0  0  0  0  0  0  0  0  0  0  0  0
   -0.9676   -5.8057    0.0000 C   0  0  0  0  0  0  0  0  0  0  0  0
   -1.3310   -7.2610    0.0000 C   0  0  0  0  0  0  0  0  0  0  0  0
   -0.2524   -8.3034    0.0000 N   0  0  0  0  0  0  0  0  0  0  0  0
   -0.6159   -9.7587    0.0000 C   0  0  0  0  0  0  0  0  0  0  0  0
    0.1785  -11.0311    0.0000 N   0  0  0  0  0  0  0  0  0  0  0  0
   -2.0579  -10.1716    0.0000 N   0  0  0  0  0  0  0  0  0  0  0  0
   -0.1394   -3.7060    0.0000 C   0  0  0  0  0  0  0  0  0  0  0  0
   -0.7539   -5.0017    0.0000 O   0  0  0  0  0  0  0  0  0  0  0  0
    1.0506   -4.3786    0.0000 N   0  0  0  0  0  0  0  0  0  0  0  0
    2.3463   -4.8138    0.0000 C   0  0  0  0  0  0  0  0  0  0  0  0
    2.6686   -6.9163    0.0000 C   0  0  0  0  0  0  0  0  0  0  0  0
    1.6787   -8.0433    0.0000 C   0  0  0  0  0  0  0  0  0  0  0  0
    2.1598   -9.4641    0.0000 C   0  0  0  0  0  0  0  0  0  0  0  0
    1.1699  -10.5911    0.0000 N   0  0  0  0  0  0  0  0  0  0  0  0
    1.6509  -12.0119    0.0000 C   0  0  0  0  0  0  0  0  0  0  0  0
    0.6610  -13.1389    0.0000 N   0  0  0  0  0  0  0  0  0  0  0  0
    3.1219  -12.3056    0.0000 N   0  0  0  0  0  0  0  0  0  0  0  0
    3.7011   -4.9960    0.0000 C   0  0  0  0  0  0  0  0  0  0  0  0
    3.7996   -7.1902    0.0000 O   0  0  0  0  0  0  0  0  0  0  0  0
    5.0658   -4.9185    0.0000 N   0  0  0  0  0  0  0  0  0  0  0  0
    6.3912   -4.5841    0.0000 C   0  0  0  0  0  0  0  0  0  0  0  0
    7.7990   -6.1786    0.0000 C   0  0  0  0  0  0  0  0  0  0  0  0
    7.5755   -7.6619    0.0000 C   0  0  0  0  0  0  0  0  0  0  0  0
    8.7484   -8.5970    0.0000 C   0  0  0  0  0  0  0  0  0  0  0  0
    8.5249  -10.0803    0.0000 N   0  0  0  0  0  0  0  0  0  0  0  0
    9.6977  -11.0154    0.0000 C   0  0  0  0  0  0  0  0  0  0  0  0
    9.4743  -12.4987    0.0000 N   0  0  0  0  0  0  0  0  0  0  0  0
   11.0940  -10.4673    0.0000 N   0  0  0  0  0  0  0  0  0  0  0  0
    7.6293   -4.0049    0.0000 C   0  0  0  0  0  0  0  0  0  0  0  0
    8.8985   -5.7975    0.0000 O   0  0  0  0  0  0  0  0  0  0  0  0
    8.7355   -3.2018    0.0000 N   0  0  0  0  0  0  0  0  0  0  0  0
    9.6697   -2.2040    0.0000 C   0  0  0  0  0  0  0  0  0  0  0  0
   11.7161   -2.7843    0.0000 C   0  0  0  0  0  0  0  0  0  0  0  0
   12.3300   -4.1529    0.0000 C   0  0  0  0  0  0  0  0  0  0  0  0
   11.5837   -5.4540    0.0000 C   0  0  0  0  0  0  0  0  0  0  0  0
   12.5905   -6.5659    0.0000 N   0  0  0  0  0  0  0  0  0  0  0  0
   13.9591   -5.9520    0.0000 C   0  0  0  0  0  0  0  0  0  0  0  0
   15.3311   -6.5582    0.0000 C   0  0  0  0  0  0  0  0  0  0  0  0
   16.5421   -5.6732    0.0000 C   0  0  0  0  0  0  0  0  0  0  0  0
   16.3812   -4.1818    0.0000 C   0  0  0  0  0  0  0  0  0  0  0  0
   15.0092   -3.5756    0.0000 C   0  0  0  0  0  0  0  0  0  0  0  0
   13.7981   -4.4606    0.0000 C   0  0  0  0  0  0  0  0  0  0  0  0
   10.3982   -1.0473    0.0000 C   0  0  0  0  0  0  0  0  0  0  0  0
   12.4351   -1.8692    0.0000 O   0  0  0  0  0  0  0  0  0  0  0  0
   10.8946    0.2263    0.0000 N   0  0  0  0  0  0  0  0  0  0  0  0
   11.1410    1.5708    0.0000 C   0  0  0  0  0  0  0  0  0  0  0  0
   13.1763    2.1890    0.0000 C   0  0  0  0  0  0  0  0  0  0  0  0
   14.4326    1.3695    0.0000 C   0  0  0  0  0  0  0  0  0  0  0  0
   15.7705    2.0479    0.0000 C   0  0  0  0  0  0  0  0  0  0  0  0
   17.0269    1.2285    0.0000 N   0  0  0  0  0  0  0  0  0  0  0  0
   18.3647    1.9068    0.0000 C   0  0  0  0  0  0  0  0  0  0  0  0
   19.6211    1.0874    0.0000 N   0  0  0  0  0  0  0  0  0  0  0  0
   18.4462    3.4046    0.0000 N   0  0  0  0  0  0  0  0  0  0  0  0
   11.1285    2.9377    0.0000 C   0  0  0  0  0  0  0  0  0  0  0  0
   13.2864    3.3475    0.0000 O   0  0  0  0  0  0  0  0  0  0  0  0
   10.8575    4.2774    0.0000 N   0  0  0  0  0  0  0  0  0  0  0  0
   10.3379    5.5418    0.0000 C   0  0  0  0  0  0  0  0  0  0  0  0
   11.7159    7.1622    0.0000 C   0  0  0  0  0  0  0  0  0  0  0  0
   13.2158    7.1521    0.0000 C   0  0  0  0  0  0  0  0  0  0  0  0
   13.9746    8.4460    0.0000 C   0  0  0  0  0  0  0  0  0  0  0  0
   15.4745    8.4359    0.0000 N   0  0  0  0  0  0  0  0  0  0  0  0
   16.2333    9.7299    0.0000 C   0  0  0  0  0  0  0  0  0  0  0  0
   17.7332    9.7198    0.0000 N   0  0  0  0  0  0  0  0  0  0  0  0
   15.4920   11.0340    0.0000 N   0  0  0  0  0  0  0  0  0  0  0  0
    9.5884    6.6849    0.0000 C   0  0  0  0  0  0  0  0  0  0  0  0
   11.1822    8.1963    0.0000 O   0  0  0  0  0  0  0  0  0  0  0  0
    8.6362    7.6655    0.0000 N   0  0  0  0  0  0  0  0  0  0  0  0
    7.5155    8.4482    0.0000 C   0  0  0  0  0  0  0  0  0  0  0  0
    6.2670    9.0046    0.0000 C   0  0  0  0  0  0  0  0  0  0  0  0
    4.9357    9.3147    0.0000 C   0  0  0  0  0  0  0  0  0  0  0  0
    3.5698    9.3673    0.0000 C   0  0  0  0  0  0  0  0  0  0  0  0
    2.2186    9.1604    0.0000 C   0  0  0  0  0  0  0  0  0  0  0  0
    0.9310    8.7015    0.0000 C   0  0  0  0  0  0  0  0  0  0  0  0
   -0.2465    8.0073    0.0000 C   0  0  0  0  0  0  0  0  0  0  0  0
   -1.2713    7.1027    0.0000 C   0  0  0  0  0  0  0  0  0  0  0  0
    9.1756    9.7780    0.0000 C   0  0  0  0  0  0  0  0  0  0  0  0
    7.7986   10.5563    0.0000 C   0  0  0  0  0  0  0  0  0  0  0  0
    8.9587   11.5073    0.0000 O   0  0  0  0  0  0  0  0  0  0  0  0
    6.6780   11.5534    0.0000 O   0  0  0  0  0  0  0  0  0  0  0  0
  -19.1389   -7.8025    0.0000 H   0  0  0  0  0  0  0  0  0  0  0  0
  -19.3332   -5.2117    0.0000 H   0  0  0  0  0  0  0  0  0  0  0  0
  -17.1416   -7.8314    0.0000 H   0  0  0  0  0  0  0  0  0  0  0  0
  -15.5484   -6.7449    0.0000 H   0  0  0  0  0  0  0  0  0  0  0  0
  -17.7856   -4.5811    0.0000 H   0  0  0  0  0  0  0  0  0  0  0  0
  -16.1924   -3.4947    0.0000 H   0  0  0  0  0  0  0  0  0  0  0  0
  -14.7212   -2.9246    0.0000 H   0  0  0  0  0  0  0  0  0  0  0  0
  -11.7001   -5.9568    0.0000 H   0  0  0  0  0  0  0  0  0  0  0  0
  -12.9445   -5.1729    0.0000 H   0  0  0  0  0  0  0  0  0  0  0  0
  -10.1003   -6.6307    0.0000 H   0  0  0  0  0  0  0  0  0  0  0  0
  -11.3405   -6.2142    0.0000 H   0  0  0  0  0  0  0  0  0  0  0  0
   -8.0311   -6.6831    0.0000 H   0  0  0  0  0  0  0  0  0  0  0  0
   -9.5009   -6.7364    0.0000 H   0  0  0  0  0  0  0  0  0  0  0  0
   -6.9186   -6.6605    0.0000 H   0  0  0  0  0  0  0  0  0  0  0  0
  -14.5698   -5.3884    0.0000 H   0  0  0  0  0  0  0  0  0  0  0  0
  -13.0216   -6.2887    0.0000 H   0  0  0  0  0  0  0  0  0  0  0  0
  -11.9638   -5.6489    0.0000 H   0  0  0  0  0  0  0  0  0  0  0  0
  -15.2123   -0.6987    0.0000 H   0  0  0  0  0  0  0  0  0  0  0  0
  -14.4436    2.0844    0.0000 H   0  0  0  0  0  0  0  0  0  0  0  0
  -16.0367   -0.6804    0.0000 H   0  0  0  0  0  0  0  0  0  0  0  0
  -14.6093   -1.0609    0.0000 H   0  0  0  0  0  0  0  0  0  0  0  0
  -16.8290    2.7006    0.0000 H   0  0  0  0  0  0  0  0  0  0  0  0
  -15.0616    2.4546    0.0000 H   0  0  0  0  0  0  0  0  0  0  0  0
  -18.7060   -0.0299    0.0000 H   0  0  0  0  0  0  0  0  0  0  0  0
  -16.9818   -0.4894    0.0000 H   0  0  0  0  0  0  0  0  0  0  0  0
  -18.3610    3.3682    0.0000 H   0  0  0  0  0  0  0  0  0  0  0  0
  -22.6266    1.9347    0.0000 H   0  0  0  0  0  0  0  0  0  0  0  0
  -20.9076    3.8828    0.0000 H   0  0  0  0  0  0  0  0  0  0  0  0
  -21.7989   -0.5280    0.0000 H   0  0  0  0  0  0  0  0  0  0  0  0
  -19.2523   -1.0427    0.0000 H   0  0  0  0  0  0  0  0  0  0  0  0
  -13.0109    4.5247    0.0000 H   0  0  0  0  0  0  0  0  0  0  0  0
  -10.3557    5.6590    0.0000 H   0  0  0  0  0  0  0  0  0  0  0  0
  -13.5106    5.1807    0.0000 H   0  0  0  0  0  0  0  0  0  0  0  0
  -12.9181    3.8275    0.0000 H   0  0  0  0  0  0  0  0  0  0  0  0
  -11.1970    7.8268    0.0000 H   0  0  0  0  0  0  0  0  0  0  0  0
  -10.4515    6.3730    0.0000 H   0  0  0  0  0  0  0  0  0  0  0  0
  -14.6662    7.6733    0.0000 H   0  0  0  0  0  0  0  0  0  0  0  0
  -13.9505    6.0387    0.0000 H   0  0  0  0  0  0  0  0  0  0  0  0
  -11.7944    9.5222    0.0000 H   0  0  0  0  0  0  0  0  0  0  0  0
  -15.5747   11.9633    0.0000 H   0  0  0  0  0  0  0  0  0  0  0  0
  -12.9799   11.8340    0.0000 H   0  0  0  0  0  0  0  0  0  0  0  0
  -16.9841    9.7808    0.0000 H   0  0  0  0  0  0  0  0  0  0  0  0
  -15.7987    7.4689    0.0000 H   0  0  0  0  0  0  0  0  0  0  0  0
   -7.9197    6.0794    0.0000 H   0  0  0  0  0  0  0  0  0  0  0  0
   -5.1950    5.0083    0.0000 H   0  0  0  0  0  0  0  0  0  0  0  0
   -6.1723    7.0516    0.0000 H   0  0  0  0  0  0  0  0  0  0  0  0
   -5.0441    5.6692    0.0000 H   0  0  0  0  0  0  0  0  0  0  0  0
   -9.3807    6.5083    0.0000 H   0  0  0  0  0  0  0  0  0  0  0  0
   -8.6205    4.8939    0.0000 H   0  0  0  0  0  0  0  0  0  0  0  0
   -9.5759    9.8167    0.0000 H   0  0  0  0  0  0  0  0  0  0  0  0
  -10.5285    7.3066    0.0000 H   0  0  0  0  0  0  0  0  0  0  0  0
   -2.9519    2.7518    0.0000 H   0  0  0  0  0  0  0  0  0  0  0  0
   -2.3464   -0.1889    0.0000 H   0  0  0  0  0  0  0  0  0  0  0  0
   -2.6310   -1.9444    0.0000 H   0  0  0  0  0  0  0  0  0  0  0  0
   -2.5787   -2.6132    0.0000 H   0  0  0  0  0  0  0  0  0  0  0  0
   -3.5311   -3.7339    0.0000 H   0  0  0  0  0  0  0  0  0  0  0  0
   -3.5105   -4.3145    0.0000 H   0  0  0  0  0  0  0  0  0  0  0  0
   -4.3910   -5.0403    0.0000 H   0  0  0  0  0  0  0  0  0  0  0  0
   -5.1439   -5.8595    0.0000 H   0  0  0  0  0  0  0  0  0  0  0  0
   -5.1795    1.3142    0.0000 H   0  0  0  0  0  0  0  0  0  0  0  0
   -5.0895    3.0462    0.0000 H   0  0  0  0  0  0  0  0  0  0  0  0
   -5.2833    3.5999    0.0000 H   0  0  0  0  0  0  0  0  0  0  0  0
   -4.6176    4.8577    0.0000 H   0  0  0  0  0  0  0  0  0  0  0  0
   -4.8711    5.1452    0.0000 H   0  0  0  0  0  0  0  0  0  0  0  0
   -4.2742    6.2539    0.0000 H   0  0  0  0  0  0  0  0  0  0  0  0
   -3.9680    7.1930    0.0000 H   0  0  0  0  0  0  0  0  0  0  0  0
   -3.4970   -3.3549    0.0000 H   0  0  0  0  0  0  0  0  0  0  0  0
   -3.0981   -3.8048    0.0000 H   0  0  0  0  0  0  0  0  0  0  0  0
   -3.0308   -5.8949    0.0000 H   0  0  0  0  0  0  0  0  0  0  0  0
   -3.5441   -4.6843    0.0000 H   0  0  0  0  0  0  0  0  0  0  0  0
    0.3178   -6.5787    0.0000 H   0  0  0  0  0  0  0  0  0  0  0  0
    0.1475   -4.8025    0.0000 H   0  0  0  0  0  0  0  0  0  0  0  0
   -2.1703   -8.5042    0.0000 H   0  0  0  0  0  0  0  0  0  0  0  0
   -2.7653   -6.8219    0.0000 H   0  0  0  0  0  0  0  0  0  0  0  0
    1.2467   -8.2517    0.0000 H   0  0  0  0  0  0  0  0  0  0  0  0
    0.0993  -12.2564    0.0000 H   0  0  0  0  0  0  0  0  0  0  0  0
    2.0091  -10.8250    0.0000 H   0  0  0  0  0  0  0  0  0  0  0  0
   -2.4213  -11.6269    0.0000 H   0  0  0  0  0  0  0  0  0  0  0  0
   -3.1365   -9.1292    0.0000 H   0  0  0  0  0  0  0  0  0  0  0  0
    0.1550   -6.3880    0.0000 H   0  0  0  0  0  0  0  0  0  0  0  0
    1.1282   -6.5575    0.0000 H   0  0  0  0  0  0  0  0  0  0  0  0
    3.6066   -8.0869    0.0000 H   0  0  0  0  0  0  0  0  0  0  0  0
    4.1195   -6.5356    0.0000 H   0  0  0  0  0  0  0  0  0  0  0  0
    0.5765   -9.0607    0.0000 H   0  0  0  0  0  0  0  0  0  0  0  0
    0.6050   -6.9958    0.0000 H   0  0  0  0  0  0  0  0  0  0  0  0
    3.0977  -10.6347    0.0000 H   0  0  0  0  0  0  0  0  0  0  0  0
    3.5534   -8.9094    0.0000 H   0  0  0  0  0  0  0  0  0  0  0  0
   -0.3285  -10.6620    0.0000 H   0  0  0  0  0  0  0  0  0  0  0  0
    1.1421  -14.5596    0.0000 H   0  0  0  0  0  0  0  0  0  0  0  0
   -0.8099  -12.8451    0.0000 H   0  0  0  0  0  0  0  0  0  0  0  0
    3.6029  -13.7264    0.0000 H   0  0  0  0  0  0  0  0  0  0  0  0
    4.1118  -11.1786    0.0000 H   0  0  0  0  0  0  0  0  0  0  0  0
    5.2164   -7.1097    0.0000 H   0  0  0  0  0  0  0  0  0  0  0  0
    6.1327   -6.6600    0.0000 H   0  0  0  0  0  0  0  0  0  0  0  0
    9.2209   -6.6562    0.0000 H   0  0  0  0  0  0  0  0  0  0  0  0
    8.8137   -5.0739    0.0000 H   0  0  0  0  0  0  0  0  0  0  0  0
    6.8583   -8.9792    0.0000 H   0  0  0  0  0  0  0  0  0  0  0  0
    6.0803   -7.5425    0.0000 H   0  0  0  0  0  0  0  0  0  0  0  0
   10.1703   -9.0746    0.0000 H   0  0  0  0  0  0  0  0  0  0  0  0
    9.6209   -7.3769    0.0000 H   0  0  0  0  0  0  0  0  0  0  0  0
    7.1286  -10.6284    0.0000 H   0  0  0  0  0  0  0  0  0  0  0  0
   10.6471  -13.4338    0.0000 H   0  0  0  0  0  0  0  0  0  0  0  0
    8.0780  -13.0468    0.0000 H   0  0  0  0  0  0  0  0  0  0  0  0
   12.2668  -11.4024    0.0000 H   0  0  0  0  0  0  0  0  0  0  0  0
   11.3174   -8.9840    0.0000 H   0  0  0  0  0  0  0  0  0  0  0  0
   10.0468   -4.9639    0.0000 H   0  0  0  0  0  0  0  0  0  0  0  0
   10.7498   -4.0364    0.0000 H   0  0  0  0  0  0  0  0  0  0  0  0
   13.2044   -2.5973    0.0000 H   0  0  0  0  0  0  0  0  0  0  0  0
   11.9725   -1.3063    0.0000 H   0  0  0  0  0  0  0  0  0  0  0  0
   10.1231   -5.7955    0.0000 H   0  0  0  0  0  0  0  0  0  0  0  0
   12.2827   -8.0340    0.0000 H   0  0  0  0  0  0  0  0  0  0  0  0
   15.4921   -8.0496    0.0000 H   0  0  0  0  0  0  0  0  0  0  0  0
   17.9142   -6.2795    0.0000 H   0  0  0  0  0  0  0  0  0  0  0  0
   17.5922   -3.2968    0.0000 H   0  0  0  0  0  0  0  0  0  0  0  0
   14.8482   -2.0842    0.0000 H   0  0  0  0  0  0  0  0  0  0  0  0
   12.9504   -0.5471    0.0000 H   0  0  0  0  0  0  0  0  0  0  0  0
   12.9219    0.4733    0.0000 H   0  0  0  0  0  0  0  0  0  0  0  0
   14.2014    3.2840    0.0000 H   0  0  0  0  0  0  0  0  0  0  0  0
   12.5929    3.5709    0.0000 H   0  0  0  0  0  0  0  0  0  0  0  0
   15.3330    0.1698    0.0000 H   0  0  0  0  0  0  0  0  0  0  0  0
   13.7029    0.0590    0.0000 H   0  0  0  0  0  0  0  0  0  0  0  0
   16.7956    3.1429    0.0000 H   0  0  0  0  0  0  0  0  0  0  0  0
   15.0231    3.3484    0.0000 H   0  0  0  0  0  0  0  0  0  0  0  0
   16.9454   -0.2693    0.0000 H   0  0  0  0  0  0  0  0  0  0  0  0
   20.9590    1.7658    0.0000 H   0  0  0  0  0  0  0  0  0  0  0  0
   19.5397   -0.4104    0.0000 H   0  0  0  0  0  0  0  0  0  0  0  0
   19.7840    4.0830    0.0000 H   0  0  0  0  0  0  0  0  0  0  0  0
   17.1898    4.2241    0.0000 H   0  0  0  0  0  0  0  0  0  0  0  0
   13.0051    4.7383    0.0000 H   0  0  0  0  0  0  0  0  0  0  0  0
   12.4295    5.5814    0.0000 H   0  0  0  0  0  0  0  0  0  0  0  0
   11.9863    8.6376    0.0000 H   0  0  0  0  0  0  0  0  0  0  0  0
   10.4780    8.0094    0.0000 H   0  0  0  0  0  0  0  0  0  0  0  0
   14.6219    6.6296    0.0000 H   0  0  0  0  0  0  0  0  0  0  0  0
   13.3105    5.6551    0.0000 H   0  0  0  0  0  0  0  0  0  0  0  0
   14.2450    9.9215    0.0000 H   0  0  0  0  0  0  0  0  0  0  0  0
   12.6427    9.1360    0.0000 H   0  0  0  0  0  0  0  0  0  0  0  0
   16.2158    7.1319    0.0000 H   0  0  0  0  0  0  0  0  0  0  0  0
   18.4919   11.0138    0.0000 H   0  0  0  0  0  0  0  0  0  0  0  0
   18.4745    8.4158    0.0000 H   0  0  0  0  0  0  0  0  0  0  0  0
   16.2507   12.3279    0.0000 H   0  0  0  0  0  0  0  0  0  0  0  0
   13.9920   11.0441    0.0000 H   0  0  0  0  0  0  0  0  0  0  0  0
   10.1936    9.2143    0.0000 H   0  0  0  0  0  0  0  0  0  0  0  0
    6.1460   11.1283    0.0000 H   0  0  0  0  0  0  0  0  0  0  0  0
    7.3796   10.8758    0.0000 H   0  0  0  0  0  0  0  0  0  0  0  0
    4.5864   11.4417    0.0000 H   0  0  0  0  0  0  0  0  0  0  0  0
    5.6741   11.3627    0.0000 H   0  0  0  0  0  0  0  0  0  0  0  0
    2.8243   11.3898    0.0000 H   0  0  0  0  0  0  0  0  0  0  0  0
    4.0814   11.4612    0.0000 H   0  0  0  0  0  0  0  0  0  0  0  0
    1.1038   11.0052    0.0000 H   0  0  0  0  0  0  0  0  0  0  0  0
    2.3247   11.3133    0.0000 H   0  0  0  0  0  0  0  0  0  0  0  0
   -0.5128   10.3021    0.0000 H   0  0  0  0  0  0  0  0  0  0  0  0
    0.6278   10.8356    0.0000 H   0  0  0  0  0  0  0  0  0  0  0  0
   -2.0465    9.1406    0.0000 H   0  0  0  0  0  0  0  0  0  0  0  0
   -0.9481   10.0454    0.0000 H   0  0  0  0  0  0  0  0  0  0  0  0
   -2.8774    8.6063    0.0000 H   0  0  0  0  0  0  0  0  0  0  0  0
    9.3920   11.2623    0.0000 H   0  0  0  0  0  0  0  0  0  0  0  0
   10.6196   10.1841    0.0000 H   0  0  0  0  0  0  0  0  0  0  0  0
    9.9861    8.5159    0.0000 H   0  0  0  0  0  0  0  0  0  0  0  0
  1  2  1  0
  2  3  1  0
  3  4  1  0
  4  5  2  0
  4  6  1  0
  7  6  1  6
  7  8  1  0
  8  9  1  0
  9 10  1  0
 10 11  1  0
  7 12  1  0
  7 13  1  0
 13 14  2  0
 13 15  1  0
 15 16  1  0
 16 17  1  0
 17 18  1  0
 18 19  1  0
 19 20  1  0
 20 21  1  0
 21 22  2  3
 21 23  1  0
 16 24  1  0
 24 25  2  0
 24 26  1  0
 26 27  1  0
 27 28  1  0
 28 29  1  0
 29 30  1  0
 30 31  1  0
 31 32  1  0
 32 33  2  3
 32 34  1  0
 27 35  1  0
 35 36  2  0
 35 37  1  0
 37 38  1  0
 38 39  1  0
 39 40  1  0
 40 41  1  0
 41 42  1  0
 41 43  2  0
 38 44  1  0
 44 45  2  0
 44 46  1  0
 46 47  1  0
 47 48  1  0
 48 49  1  0
 49 50  1  0
 50 51  1  0
 47 52  1  0
 52 53  1  0
 53 54  1  0
 54 55  1  0
 47 56  1  0
 56 57  2  0
 56 58  1  0
 58 59  1  0
 59 60  1  0
 60 61  1  0
 61 62  1  0
 62 63  1  0
 63 64  1  0
 64 65  2  3
 64 66  1  0
 59 67  1  0
 67 68  2  0
 67 69  1  0
 69 70  1  0
 70 71  1  0
 71 72  1  0
 72 73  1  0
 73 74  1  0
 74 75  1  0
 75 76  2  3
 75 77  1  0
 70 78  1  0
 78 79  2  0
 78 80  1  0
 80 81  1  0
 81 82  1  0
 82 83  1  0
 83 84  1  0
 84 85  1  0
 85 86  1  0
 86 87  2  3
 86 88  1  0
 81 89  1  0
 89 90  2  0
 89 91  1  0
 91 92  1  0
 92 93  1  0
 93 94  1  0
 94 95  2  0
 95 96  1  0
 96 97  1  0
 97 98  2  0
 98 99  1  0
 99100  2  0
100101  1  0
101102  2  0
 92103  1  0
103104  2  0
103105  1  0
105106  1  0
106107  1  0
107108  1  0
108109  1  0
109110  1  0
110111  1  0
111112  2  3
111113  1  0
106114  1  0
114115  2  0
114116  1  0
116117  1  0
117118  1  0
118119  1  0
119120  1  0
120121  1  0
121122  1  0
122123  2  3
122124  1  0
117125  1  0
125126  2  0
125127  1  0
127128  1  0
128129  1  0
129130  1  0
130131  1  0
131132  1  0
132133  1  0
133134  1  0
134135  1  0
128136  1  0
128137  1  1
137138  2  0
137139  1  0
102 94  1  0
102 97  1  0
 11 51  2  0
 55135  2  0
  1140  1  0
  1141  1  0
  2142  1  0
  2143  1  0
  3144  1  0
  3145  1  0
  6146  1  0
  8147  1  0
  8148  1  0
  9149  1  0
  9150  1  0
 10151  1  0
 10152  1  0
 11153  1  0
 12154  1  0
 12155  1  0
 12156  1  0
 15157  1  0
 16158  1  1
 17159  1  0
 17160  1  0
 18161  1  0
 18162  1  0
 19163  1  0
 19164  1  0
 20165  1  0
 22166  1  0
 22167  1  0
 23168  1  0
 23169  1  0
 26170  1  0
 27171  1  1
 28172  1  0
 28173  1  0
 29174  1  0
 29175  1  0
 30176  1  0
 30177  1  0
 31178  1  0
 33179  1  0
 33180  1  0
 34181  1  0
 34182  1  0
 37183  1  0
 38184  1  1
 39185  1  0
 39186  1  0
 40187  1  0
 40188  1  0
 42189  1  0
 42190  1  0
 46191  1  0
 48192  1  0
 48193  1  0
 49194  1  0
 49195  1  0
 50196  1  0
 50197  1  0
 51198  1  0
 52199  1  0
 52200  1  0
 53201  1  0
 53202  1  0
 54203  1  0
 54204  1  0
 55205  1  0
 58206  1  0
 59207  1  6
 60208  1  0
 60209  1  0
 61210  1  0
 61211  1  0
 62212  1  0
 62213  1  0
 63214  1  0
 65215  1  0
 65216  1  0
 66217  1  0
 66218  1  0
 69219  1  0
 70220  1  6
 71221  1  0
 71222  1  0
 72223  1  0
 72224  1  0
 73225  1  0
 73226  1  0
 74227  1  0
 76228  1  0
 76229  1  0
 77230  1  0
 77231  1  0
 80232  1  0
 81233  1  6
 82234  1  0
 82235  1  0
 83236  1  0
 83237  1  0
 84238  1  0
 84239  1  0
 85240  1  0
 87241  1  0
 87242  1  0
 88243  1  0
 88244  1  0
 91245  1  0
 92246  1  6
 93247  1  0
 93248  1  0
 95249  1  0
 96250  1  0
 98251  1  0
 99252  1  0
100253  1  0
101254  1  0
105255  1  0
106256  1  6
107257  1  0
107258  1  0
108259  1  0
108260  1  0
109261  1  0
109262  1  0
110263  1  0
112264  1  0
112265  1  0
113266  1  0
113267  1  0
116268  1  0
117269  1  6
118270  1  0
118271  1  0
119272  1  0
119273  1  0
120274  1  0
120275  1  0
121276  1  0
123277  1  0
123278  1  0
124279  1  0
124280  1  0
127281  1  0
129282  1  0
129283  1  0
130284  1  0
130285  1  0
131286  1  0
131287  1  0
132288  1  0
132289  1  0
133290  1  0
133291  1  0
134292  1  0
134293  1  0
135294  1  0
136295  1  0
136296  1  0
136297  1  0
M  CHG  8  22   1  33   1  65   1  76   1  87   1 112   1 123   1 139  -1
M  END
