
     RDKit          2D

263265  0  0  0  0  0  0  0  0999 V2000
  -21.2649   -1.1302    0.0000 N   0  0  0  0  0  0  0  0  0  0  0  0
  -19.8664   -1.6726    0.0000 C   0  0  0  0  0  0  0  0  0  0  0  0
  -19.6369   -3.1549    0.0000 C   0  0  0  0  0  0  0  0  0  0  0  0
  -18.2383   -3.6973    0.0000 C   0  0  0  0  0  0  0  0  0  0  0  0
  -17.0694   -2.7573    0.0000 O   0  0  0  0  0  0  0  0  0  0  0  0
  -18.0088   -5.1796    0.0000 N   0  0  0  0  0  0  0  0  0  0  0  0
  -16.6103   -5.7220    0.0000 C   0  0  0  0  0  0  0  0  0  0  0  0
  -17.3872   -7.0050    0.0000 C   0  0  0  0  0  0  0  0  0  0  0  0
  -18.8869   -6.9737    0.0000 C   0  0  0  0  0  0  0  0  0  0  0  0
  -19.6639   -8.2568    0.0000 N   0  0  0  0  0  0  0  0  0  0  0  0
  -19.7644   -5.7572    0.0000 O   0  0  0  0  0  0  0  0  0  0  0  0
  -15.1106   -5.7533    0.0000 C   0  0  0  0  0  0  0  0  0  0  0  0
  -14.5535   -7.1460    0.0000 O   0  0  0  0  0  0  0  0  0  0  0  0
  -14.3336   -4.4702    0.0000 N   0  0  0  0  0  0  0  0  0  0  0  0
  -12.8339   -4.5015    0.0000 C   0  0  0  0  0  0  0  0  0  0  0  0
  -13.1252   -5.9730    0.0000 C   0  0  0  0  0  0  0  0  0  0  0  0
  -11.9965   -6.9609    0.0000 C   0  0  0  0  0  0  0  0  0  0  0  0
  -12.2878   -8.4324    0.0000 C   0  0  0  0  0  0  0  0  0  0  0  0
  -11.1591   -9.4204    0.0000 N   0  0  0  0  0  0  0  0  0  0  0  0
  -13.7077   -8.9159    0.0000 O   0  0  0  0  0  0  0  0  0  0  0  0
  -11.4140   -4.0180    0.0000 C   0  0  0  0  0  0  0  0  0  0  0  0
  -10.2853   -5.0060    0.0000 O   0  0  0  0  0  0  0  0  0  0  0  0
  -11.1227   -2.5466    0.0000 N   0  0  0  0  0  0  0  0  0  0  0  0
   -9.7028   -2.0631    0.0000 C   0  0  0  0  0  0  0  0  0  0  0  0
  -10.4255   -0.7487    0.0000 C   0  0  0  0  0  0  0  0  0  0  0  0
  -11.9252   -0.7174    0.0000 C   0  0  0  0  0  0  0  0  0  0  0  0
  -12.9444    0.3831    0.0000 C   0  0  0  0  0  0  0  0  0  0  0  0
  -13.3451   -1.2009    0.0000 C   0  0  0  0  0  0  0  0  0  0  0  0
   -8.2031   -2.0944    0.0000 C   0  0  0  0  0  0  0  0  0  0  0  0
   -7.5883   -0.7262    0.0000 O   0  0  0  0  0  0  0  0  0  0  0  0
   -7.4804   -3.4089    0.0000 N   0  0  0  0  0  0  0  0  0  0  0  0
   -5.9807   -3.4402    0.0000 C   0  0  0  0  0  0  0  0  0  0  0  0
   -5.0974   -4.6526    0.0000 C   0  0  0  0  0  0  0  0  0  0  0  0
   -4.0007   -5.6758    0.0000 C   0  0  0  0  0  0  0  0  0  0  0  0
   -2.7301   -6.4731    0.0000 C   0  0  0  0  0  0  0  0  0  0  0  0
   -1.3316   -7.0154    0.0000 C   0  0  0  0  0  0  0  0  0  0  0  0
    0.1443   -7.2833    0.0000 C   0  0  0  0  0  0  0  0  0  0  0  0
    1.6442   -7.2670    0.0000 C   0  0  0  0  0  0  0  0  0  0  0  0
    3.1140   -6.9672    0.0000 C   0  0  0  0  0  0  0  0  0  0  0  0
   -6.8317   -4.6755    0.0000 C   0  0  0  0  0  0  0  0  0  0  0  0
   -6.6186   -2.0826    0.0000 C   0  0  0  0  0  0  0  0  0  0  0  0
   -7.4118   -2.1619    0.0000 O   0  0  0  0  0  0  0  0  0  0  0  0
   -6.9880   -0.6288    0.0000 N   0  0  0  0  0  0  0  0  0  0  0  0
   -7.0757    0.8686    0.0000 C   0  0  0  0  0  0  0  0  0  0  0  0
   -8.3784    0.1252    0.0000 C   0  0  0  0  0  0  0  0  0  0  0  0
   -9.6737    0.8817    0.0000 C   0  0  0  0  0  0  0  0  0  0  0  0
   -9.6662    2.3817    0.0000 C   0  0  0  0  0  0  0  0  0  0  0  0
  -10.9614    3.1382    0.0000 C   0  0  0  0  0  0  0  0  0  0  0  0
  -12.2642    2.3947    0.0000 C   0  0  0  0  0  0  0  0  0  0  0  0
  -12.2717    0.8947    0.0000 C   0  0  0  0  0  0  0  0  0  0  0  0
  -10.9765    0.1382    0.0000 C   0  0  0  0  0  0  0  0  0  0  0  0
   -6.8783    2.3556    0.0000 C   0  0  0  0  0  0  0  0  0  0  0  0
   -8.2877    2.8690    0.0000 O   0  0  0  0  0  0  0  0  0  0  0  0
   -6.4031    3.7783    0.0000 N   0  0  0  0  0  0  0  0  0  0  0  0
   -5.6672    5.0854    0.0000 C   0  0  0  0  0  0  0  0  0  0  0  0
   -7.1652    5.1643    0.0000 C   0  0  0  0  0  0  0  0  0  0  0  0
   -7.8458    6.5010    0.0000 O   0  0  0  0  0  0  0  0  0  0  0  0
   -4.6973    6.2297    0.0000 C   0  0  0  0  0  0  0  0  0  0  0  0
   -5.7441    7.3040    0.0000 O   0  0  0  0  0  0  0  0  0  0  0  0
   -3.5283    7.1696    0.0000 N   0  0  0  0  0  0  0  0  0  0  0  0
   -2.2026    7.8714    0.0000 C   0  0  0  0  0  0  0  0  0  0  0  0
   -3.4201    8.7476    0.0000 C   0  0  0  0  0  0  0  0  0  0  0  0
   -3.2700   10.2401    0.0000 C   0  0  0  0  0  0  0  0  0  0  0  0
   -4.4875   11.1163    0.0000 C   0  0  0  0  0  0  0  0  0  0  0  0
   -4.3374   12.6087    0.0000 N   0  0  0  0  0  0  0  0  0  0  0  0
   -5.5549   13.4850    0.0000 C   0  0  0  0  0  0  0  0  0  0  0  0
   -5.4048   14.9774    0.0000 N   0  0  0  0  0  0  0  0  0  0  0  0
   -6.9225   12.8687    0.0000 N   0  0  0  0  0  0  0  0  0  0  0  0
   -0.7681    8.3096    0.0000 C   0  0  0  0  0  0  0  0  0  0  0  0
   -0.8865    9.8049    0.0000 O   0  0  0  0  0  0  0  0  0  0  0  0
    0.7235    8.4683    0.0000 N   0  0  0  0  0  0  0  0  0  0  0  0
    2.2182    8.3420    0.0000 C   0  0  0  0  0  0  0  0  0  0  0  0
    1.6677    9.7373    0.0000 C   0  0  0  0  0  0  0  0  0  0  0  0
    2.6008   10.9117    0.0000 C   0  0  0  0  0  0  0  0  0  0  0  0
    4.0845   10.6908    0.0000 C   0  0  0  0  0  0  0  0  0  0  0  0
    5.0176   11.8652    0.0000 C   0  0  0  0  0  0  0  0  0  0  0  0
    4.4671   13.2605    0.0000 C   0  0  0  0  0  0  0  0  0  0  0  0
    2.9835   13.4814    0.0000 C   0  0  0  0  0  0  0  0  0  0  0  0
    2.0503   12.3070    0.0000 C   0  0  0  0  0  0  0  0  0  0  0  0
    3.6619    7.9350    0.0000 C   0  0  0  0  0  0  0  0  0  0  0  0
    4.3707    9.2570    0.0000 O   0  0  0  0  0  0  0  0  0  0  0  0
    5.0026    7.2622    0.0000 N   0  0  0  0  0  0  0  0  0  0  0  0
    6.1916    6.3478    0.0000 C   0  0  0  0  0  0  0  0  0  0  0  0
    6.4829    7.8192    0.0000 C   0  0  0  0  0  0  0  0  0  0  0  0
    7.1861    5.2249    0.0000 C   0  0  0  0  0  0  0  0  0  0  0  0
    8.3985    6.1081    0.0000 O   0  0  0  0  0  0  0  0  0  0  0  0
    7.9502    3.9340    0.0000 N   0  0  0  0  0  0  0  0  0  0  0  0
    8.4561    2.5219    0.0000 C   0  0  0  0  0  0  0  0  0  0  0  0
    9.4967    3.6023    0.0000 C   0  0  0  0  0  0  0  0  0  0  0  0
   10.9526    3.2414    0.0000 C   0  0  0  0  0  0  0  0  0  0  0  0
   11.9932    4.3218    0.0000 C   0  0  0  0  0  0  0  0  0  0  0  0
   12.1973    2.4042    0.0000 C   0  0  0  0  0  0  0  0  0  0  0  0
    8.6857    1.0396    0.0000 C   0  0  0  0  0  0  0  0  0  0  0  0
   10.1827    0.9440    0.0000 O   0  0  0  0  0  0  0  0  0  0  0  0
    8.6306   -0.4594    0.0000 N   0  0  0  0  0  0  0  0  0  0  0  0
    8.2928   -1.9209    0.0000 C   0  0  0  0  0  0  0  0  0  0  0  0
    7.6845   -3.2920    0.0000 C   0  0  0  0  0  0  0  0  0  0  0  0
    6.8277   -4.5232    0.0000 C   0  0  0  0  0  0  0  0  0  0  0  0
    5.7534   -5.5700    0.0000 C   0  0  0  0  0  0  0  0  0  0  0  0
    4.5004   -6.3946    0.0000 C   0  0  0  0  0  0  0  0  0  0  0  0
    9.3847   -2.9493    0.0000 C   0  0  0  0  0  0  0  0  0  0  0  0
    9.7523   -1.5745    0.0000 C   0  0  0  0  0  0  0  0  0  0  0  0
   10.3540   -0.2006    0.0000 O   0  0  0  0  0  0  0  0  0  0  0  0
   10.7819   -2.6653    0.0000 N   0  0  0  0  0  0  0  0  0  0  0  0
   12.2414   -2.3190    0.0000 C   0  0  0  0  0  0  0  0  0  0  0  0
   13.4944   -1.4944    0.0000 C   0  0  0  0  0  0  0  0  0  0  0  0
   14.8350   -2.1673    0.0000 C   0  0  0  0  0  0  0  0  0  0  0  0
   16.0880   -1.3427    0.0000 O   0  0  0  0  0  0  0  0  0  0  0  0
   15.2824   -3.5990    0.0000 O   0  0  0  0  0  0  0  0  0  0  0  0
   13.2710   -3.4098    0.0000 C   0  0  0  0  0  0  0  0  0  0  0  0
   12.8412   -4.8469    0.0000 O   0  0  0  0  0  0  0  0  0  0  0  0
   14.7305   -3.0635    0.0000 N   0  0  0  0  0  0  0  0  0  0  0  0
   15.7602   -4.1543    0.0000 C   0  0  0  0  0  0  0  0  0  0  0  0
   16.3547   -5.5314    0.0000 C   0  0  0  0  0  0  0  0  0  0  0  0
   17.8446   -5.7052    0.0000 C   0  0  0  0  0  0  0  0  0  0  0  0
   18.4390   -7.0823    0.0000 C   0  0  0  0  0  0  0  0  0  0  0  0
   19.8967   -7.4364    0.0000 N   0  0  0  0  0  0  0  0  0  0  0  0
   17.5436   -8.2858    0.0000 O   0  0  0  0  0  0  0  0  0  0  0  0
   17.2196   -3.8080    0.0000 C   0  0  0  0  0  0  0  0  0  0  0  0
   17.6495   -2.3709    0.0000 O   0  0  0  0  0  0  0  0  0  0  0  0
   18.2493   -4.8987    0.0000 N   0  0  0  0  0  0  0  0  0  0  0  0
   19.7088   -4.5524    0.0000 C   0  0  0  0  0  0  0  0  0  0  0  0
   20.9618   -3.7278    0.0000 C   0  0  0  0  0  0  0  0  0  0  0  0
   22.3024   -4.4007    0.0000 C   0  0  0  0  0  0  0  0  0  0  0  0
   21.8572   -2.5244    0.0000 C   0  0  0  0  0  0  0  0  0  0  0  0
   21.2627   -1.1472    0.0000 C   0  0  0  0  0  0  0  0  0  0  0  0
   20.7384   -5.6432    0.0000 C   0  0  0  0  0  0  0  0  0  0  0  0
   22.2292   -5.4774    0.0000 O   0  0  0  0  0  0  0  0  0  0  0  0
   20.4870   -7.1220    0.0000 O   0  0  0  0  0  0  0  0  0  0  0  0
  -21.4945    0.3521    0.0000 H   0  0  0  0  0  0  0  0  0  0  0  0
  -22.4339   -2.0702    0.0000 H   0  0  0  0  0  0  0  0  0  0  0  0
  -19.5751   -0.2011    0.0000 H   0  0  0  0  0  0  0  0  0  0  0  0
  -18.3667   -1.7039    0.0000 H   0  0  0  0  0  0  0  0  0  0  0  0
  -21.1365   -3.1236    0.0000 H   0  0  0  0  0  0  0  0  0  0  0  0
  -19.9281   -4.6264    0.0000 H   0  0  0  0  0  0  0  0  0  0  0  0
  -19.2836   -5.9701    0.0000 H   0  0  0  0  0  0  0  0  0  0  0  0
  -16.3190   -4.2505    0.0000 H   0  0  0  0  0  0  0  0  0  0  0  0
  -17.6785   -8.4765    0.0000 H   0  0  0  0  0  0  0  0  0  0  0  0
  -15.9887   -7.5474    0.0000 H   0  0  0  0  0  0  0  0  0  0  0  0
  -21.1635   -8.2255    0.0000 H   0  0  0  0  0  0  0  0  0  0  0  0
  -18.9412   -9.5712    0.0000 H   0  0  0  0  0  0  0  0  0  0  0  0
  -15.0563   -3.1558    0.0000 H   0  0  0  0  0  0  0  0  0  0  0  0
  -12.8811   -3.0023    0.0000 H   0  0  0  0  0  0  0  0  0  0  0  0
  -13.7400   -7.3412    0.0000 H   0  0  0  0  0  0  0  0  0  0  0  0
  -14.6134   -5.7851    0.0000 H   0  0  0  0  0  0  0  0  0  0  0  0
  -10.5980   -7.5033    0.0000 H   0  0  0  0  0  0  0  0  0  0  0  0
  -11.2196   -5.6779    0.0000 H   0  0  0  0  0  0  0  0  0  0  0  0
  -11.4504  -10.8918    0.0000 H   0  0  0  0  0  0  0  0  0  0  0  0
   -9.7392   -8.9369    0.0000 H   0  0  0  0  0  0  0  0  0  0  0  0
  -12.3634   -1.7036    0.0000 H   0  0  0  0  0  0  0  0  0  0  0  0
   -9.4732   -3.5455    0.0000 H   0  0  0  0  0  0  0  0  0  0  0  0
  -10.8340    0.6946    0.0000 H   0  0  0  0  0  0  0  0  0  0  0  0
   -8.9448   -0.9886    0.0000 H   0  0  0  0  0  0  0  0  0  0  0  0
  -12.2422   -2.1835    0.0000 H   0  0  0  0  0  0  0  0  0  0  0  0
  -14.1475    0.6284    0.0000 H   0  0  0  0  0  0  0  0  0  0  0  0
  -13.2899    2.0452    0.0000 H   0  0  0  0  0  0  0  0  0  0  0  0
  -11.3257    1.2846    0.0000 H   0  0  0  0  0  0  0  0  0  0  0  0
  -14.5858   -0.3578    0.0000 H   0  0  0  0  0  0  0  0  0  0  0  0
  -14.5141   -2.1408    0.0000 H   0  0  0  0  0  0  0  0  0  0  0  0
  -12.4676   -2.4174    0.0000 H   0  0  0  0  0  0  0  0  0  0  0  0
   -8.4080   -4.5877    0.0000 H   0  0  0  0  0  0  0  0  0  0  0  0
   -5.6992   -6.0265    0.0000 H   0  0  0  0  0  0  0  0  0  0  0  0
   -6.5341   -5.0839    0.0000 H   0  0  0  0  0  0  0  0  0  0  0  0
   -4.3316   -7.1389    0.0000 H   0  0  0  0  0  0  0  0  0  0  0  0
   -5.3297   -6.3713    0.0000 H   0  0  0  0  0  0  0  0  0  0  0  0
   -2.7781   -7.9723    0.0000 H   0  0  0  0  0  0  0  0  0  0  0  0
   -3.9035   -7.4075    0.0000 H   0  0  0  0  0  0  0  0  0  0  0  0
   -1.0950   -8.4966    0.0000 H   0  0  0  0  0  0  0  0  0  0  0  0
   -2.3069   -8.1550    0.0000 H   0  0  0  0  0  0  0  0  0  0  0  0
    0.6569   -8.6930    0.0000 H   0  0  0  0  0  0  0  0  0  0  0  0
   -0.5977   -8.5869    0.0000 H   0  0  0  0  0  0  0  0  0  0  0  0
    2.5655   -8.4508    0.0000 H   0  0  0  0  0  0  0  0  0  0  0  0
    1.1623   -8.6875    0.0000 H   0  0  0  0  0  0  0  0  0  0  0  0
    3.5521   -8.4018    0.0000 H   0  0  0  0  0  0  0  0  0  0  0  0
   -8.1441   -4.9962    0.0000 H   0  0  0  0  0  0  0  0  0  0  0  0
   -6.8721   -6.2569    0.0000 H   0  0  0  0  0  0  0  0  0  0  0  0
   -5.4242   -5.5903    0.0000 H   0  0  0  0  0  0  0  0  0  0  0  0
   -8.3708   -1.2102    0.0000 H   0  0  0  0  0  0  0  0  0  0  0  0
   -8.3203    1.7058    0.0000 H   0  0  0  0  0  0  0  0  0  0  0  0
   -9.3484   -1.0190    0.0000 H   0  0  0  0  0  0  0  0  0  0  0  0
   -7.5679   -1.1369    0.0000 H   0  0  0  0  0  0  0  0  0  0  0  0
   -8.4637    3.2784    0.0000 H   0  0  0  0  0  0  0  0  0  0  0  0
  -10.9539    4.6382    0.0000 H   0  0  0  0  0  0  0  0  0  0  0  0
  -13.5595    3.1512    0.0000 H   0  0  0  0  0  0  0  0  0  0  0  0
  -13.6554    0.3156    0.0000 H   0  0  0  0  0  0  0  0  0  0  0  0
  -10.9840   -1.3618    0.0000 H   0  0  0  0  0  0  0  0  0  0  0  0
   -7.8382    4.2150    0.0000 H   0  0  0  0  0  0  0  0  0  0  0  0
   -6.2617    6.4626    0.0000 H   0  0  0  0  0  0  0  0  0  0  0  0
   -8.6424    4.9043    0.0000 H   0  0  0  0  0  0  0  0  0  0  0  0
   -7.3484    3.6756    0.0000 H   0  0  0  0  0  0  0  0  0  0  0  0
   -9.3437    6.5799    0.0000 H   0  0  0  0  0  0  0  0  0  0  0  0
   -4.4995    8.3128    0.0000 H   0  0  0  0  0  0  0  0  0  0  0  0
   -1.7796    9.3105    0.0000 H   0  0  0  0  0  0  0  0  0  0  0  0
   -4.8638    9.1546    0.0000 H   0  0  0  0  0  0  0  0  0  0  0  0
   -4.3792    7.5943    0.0000 H   0  0  0  0  0  0  0  0  0  0  0  0
   -2.6185   11.5912    0.0000 H   0  0  0  0  0  0  0  0  0  0  0  0
   -1.7707   10.1945    0.0000 H   0  0  0  0  0  0  0  0  0  0  0  0
   -5.9312   11.5232    0.0000 H   0  0  0  0  0  0  0  0  0  0  0  0
   -5.2988    9.8546    0.0000 H   0  0  0  0  0  0  0  0  0  0  0  0
   -2.9699   13.2250    0.0000 H   0  0  0  0  0  0  0  0  0  0  0  0
   -6.6223   15.8536    0.0000 H   0  0  0  0  0  0  0  0  0  0  0  0
   -4.0373   15.5937    0.0000 H   0  0  0  0  0  0  0  0  0  0  0  0
   -8.1399   13.7449    0.0000 H   0  0  0  0  0  0  0  0  0  0  0  0
   -7.0725   11.3762    0.0000 H   0  0  0  0  0  0  0  0  0  0  0  0
    0.5245    9.9551    0.0000 H   0  0  0  0  0  0  0  0  0  0  0  0
    3.2239    9.4548    0.0000 H   0  0  0  0  0  0  0  0  0  0  0  0
    0.8175   10.9730    0.0000 H   0  0  0  0  0  0  0  0  0  0  0  0
    0.2373    9.2855    0.0000 H   0  0  0  0  0  0  0  0  0  0  0  0
    4.8010    9.3729    0.0000 H   0  0  0  0  0  0  0  0  0  0  0  0
    6.5013   11.6443    0.0000 H   0  0  0  0  0  0  0  0  0  0  0  0
    5.4003   14.4349    0.0000 H   0  0  0  0  0  0  0  0  0  0  0  0
    2.4330   14.8768    0.0000 H   0  0  0  0  0  0  0  0  0  0  0  0
    0.5667   12.5280    0.0000 H   0  0  0  0  0  0  0  0  0  0  0  0
    5.6390    8.6205    0.0000 H   0  0  0  0  0  0  0  0  0  0  0  0
    7.6394    6.7402    0.0000 H   0  0  0  0  0  0  0  0  0  0  0  0
    7.9028    8.3027    0.0000 H   0  0  0  0  0  0  0  0  0  0  0  0
    6.4357    9.3185    0.0000 H   0  0  0  0  0  0  0  0  0  0  0  0
    5.0354    8.2125    0.0000 H   0  0  0  0  0  0  0  0  0  0  0  0
    9.2199    4.7326    0.0000 H   0  0  0  0  0  0  0  0  0  0  0  0
    9.8204    1.8984    0.0000 H   0  0  0  0  0  0  0  0  0  0  0  0
   10.1050    4.9734    0.0000 H   0  0  0  0  0  0  0  0  0  0  0  0
    8.4916    4.7158    0.0000 H   0  0  0  0  0  0  0  0  0  0  0  0
   10.6942    1.7638    0.0000 H   0  0  0  0  0  0  0  0  0  0  0  0
   13.4822    4.1410    0.0000 H   0  0  0  0  0  0  0  0  0  0  0  0
   12.6015    5.6929    0.0000 H   0  0  0  0  0  0  0  0  0  0  0  0
   10.8598    5.3044    0.0000 H   0  0  0  0  0  0  0  0  0  0  0  0
   13.6149    2.8944    0.0000 H   0  0  0  0  0  0  0  0  0  0  0  0
   13.0806    1.1919    0.0000 H   0  0  0  0  0  0  0  0  0  0  0  0
   11.1567    1.3238    0.0000 H   0  0  0  0  0  0  0  0  0  0  0  0
   10.1305   -0.4740    0.0000 H   0  0  0  0  0  0  0  0  0  0  0  0
    9.1797   -3.4113    0.0000 H   0  0  0  0  0  0  0  0  0  0  0  0
    8.4072   -4.6064    0.0000 H   0  0  0  0  0  0  0  0  0  0  0  0
    8.2138   -5.0966    0.0000 H   0  0  0  0  0  0  0  0  0  0  0  0
    7.4592   -5.8838    0.0000 H   0  0  0  0  0  0  0  0  0  0  0  0
    7.0972   -6.2365    0.0000 H   0  0  0  0  0  0  0  0  0  0  0  0
    5.9358   -7.0589    0.0000 H   0  0  0  0  0  0  0  0  0  0  0  0
    5.2021   -7.7204    0.0000 H   0  0  0  0  0  0  0  0  0  0  0  0
    9.1213   -4.5943    0.0000 H   0  0  0  0  0  0  0  0  0  0  0  0
   10.4303   -3.9663    0.0000 H   0  0  0  0  0  0  0  0  0  0  0  0
   10.4428   -2.1632    0.0000 H   0  0  0  0  0  0  0  0  0  0  0  0
   10.5305   -4.1441    0.0000 H   0  0  0  0  0  0  0  0  0  0  0  0
   11.6469   -0.9418    0.0000 H   0  0  0  0  0  0  0  0  0  0  0  0
   14.3898   -0.2910    0.0000 H   0  0  0  0  0  0  0  0  0  0  0  0
   12.4647   -0.4036    0.0000 H   0  0  0  0  0  0  0  0  0  0  0  0
   15.4953   -1.7731    0.0000 H   0  0  0  0  0  0  0  0  0  0  0  0
   14.5072   -4.9789    0.0000 H   0  0  0  0  0  0  0  0  0  0  0  0
   16.4423   -7.0289    0.0000 H   0  0  0  0  0  0  0  0  0  0  0  0
   14.8952   -5.8777    0.0000 H   0  0  0  0  0  0  0  0  0  0  0  0
   19.3040   -5.3589    0.0000 H   0  0  0  0  0  0  0  0  0  0  0  0
   18.4703   -4.3419    0.0000 H   0  0  0  0  0  0  0  0  0  0  0  0
   20.5234   -8.6332    0.0000 H   0  0  0  0  0  0  0  0  0  0  0  0
   21.2587   -6.4771    0.0000 H   0  0  0  0  0  0  0  0  0  0  0  0
   18.1800   -6.3971    0.0000 H   0  0  0  0  0  0  0  0  0  0  0  0
   19.1143   -3.1753    0.0000 H   0  0  0  0  0  0  0  0  0  0  0  0
   19.8068   -2.7707    0.0000 H   0  0  0  0  0  0  0  0  0  0  0  0
   23.6466   -3.7349    0.0000 H   0  0  0  0  0  0  0  0  0  0  0  0
   23.3321   -5.4914    0.0000 H   0  0  0  0  0  0  0  0  0  0  0  0
   22.0769   -5.8836    0.0000 H   0  0  0  0  0  0  0  0  0  0  0  0
   23.1102   -1.6998    0.0000 H   0  0  0  0  0  0  0  0  0  0  0  0
   23.0121   -3.4815    0.0000 H   0  0  0  0  0  0  0  0  0  0  0  0
   22.1581    0.0562    0.0000 H   0  0  0  0  0  0  0  0  0  0  0  0
   20.2331   -0.0564    0.0000 H   0  0  0  0  0  0  0  0  0  0  0  0
   19.9185   -1.8129    0.0000 H   0  0  0  0  0  0  0  0  0  0  0  0
  1  2  1  0
  2  3  1  0
  3  4  1  0
  4  5  2  0
  4  6  1  0
  6  7  1  0
  7  8  1  0
  8  9  1  0
  9 10  1  0
  9 11  2  0
  7 12  1  0
 12 13  2  0
 12 14  1  0
 14 15  1  0
 15 16  1  0
 16 17  1  0
 17 18  1  0
 18 19  1  0
 18 20  2  0
 15 21  1  0
 21 22  2  0
 21 23  1  0
 23 24  1  0
 24 25  1  0
 25 26  1  0
 26 27  1  0
 26 28  1  0
 24 29  1  0
 29 30  2  0
 29 31  1  0
 32 31  1  1
 32 33  1  0
 33 34  1  0
 34 35  1  0
 35 36  1  0
 36 37  1  0
 37 38  1  0
 38 39  1  0
 32 40  1  0
 32 41  1  0
 41 42  2  0
 41 43  1  0
 43 44  1  0
 44 45  1  0
 45 46  1  0
 46 47  2  0
 47 48  1  0
 48 49  2  0
 49 50  1  0
 50 51  2  0
 44 52  1  0
 52 53  2  0
 52 54  1  0
 54 55  1  0
 55 56  1  0
 56 57  1  0
 55 58  1  0
 58 59  2  0
 58 60  1  0
 60 61  1  0
 61 62  1  0
 62 63  1  0
 63 64  1  0
 64 65  1  0
 65 66  1  0
 66 67  2  3
 66 68  1  0
 61 69  1  0
 69 70  2  0
 69 71  1  0
 71 72  1  0
 72 73  1  0
 73 74  1  0
 74 75  2  0
 75 76  1  0
 76 77  2  0
 77 78  1  0
 78 79  2  0
 72 80  1  0
 80 81  2  0
 80 82  1  0
 82 83  1  0
 83 84  1  0
 83 85  1  0
 85 86  2  0
 85 87  1  0
 87 88  1  0
 88 89  1  0
 89 90  1  0
 90 91  1  0
 90 92  1  0
 88 93  1  0
 93 94  2  0
 93 95  1  0
 95 96  1  0
 96 97  1  0
 97 98  1  0
 98 99  1  0
 99100  1  0
 96101  1  0
 96102  1  6
102103  2  0
102104  1  0
104105  1  0
105106  1  0
106107  1  0
107108  2  0
107109  1  0
105110  1  0
110111  2  0
110112  1  0
112113  1  0
113114  1  0
114115  1  0
115116  1  0
116117  1  0
116118  2  0
113119  1  0
119120  2  0
119121  1  0
121122  1  0
122123  1  0
123124  1  0
123125  1  0
125126  1  0
122127  1  0
127128  2  0
127129  1  0
 51 46  1  0
 79 74  1  0
 39100  2  0
  1130  1  0
  1131  1  0
  2132  1  0
  2133  1  0
  3134  1  0
  3135  1  0
  6136  1  0
  7137  1  6
  8138  1  0
  8139  1  0
 10140  1  0
 10141  1  0
 14142  1  0
 15143  1  6
 16144  1  0
 16145  1  0
 17146  1  0
 17147  1  0
 19148  1  0
 19149  1  0
 23150  1  0
 24151  1  1
 25152  1  0
 25153  1  0
 26154  1  0
 27155  1  0
 27156  1  0
 27157  1  0
 28158  1  0
 28159  1  0
 28160  1  0
 31161  1  0
 33162  1  0
 33163  1  0
 34164  1  0
 34165  1  0
 35166  1  0
 35167  1  0
 36168  1  0
 36169  1  0
 37170  1  0
 37171  1  0
 38172  1  0
 38173  1  0
 39174  1  0
 40175  1  0
 40176  1  0
 40177  1  0
 43178  1  0
 44179  1  1
 45180  1  0
 45181  1  0
 47182  1  0
 48183  1  0
 49184  1  0
 50185  1  0
 51186  1  0
 54187  1  0
 55188  1  1
 56189  1  0
 56190  1  0
 57191  1  0
 60192  1  0
 61193  1  1
 62194  1  0
 62195  1  0
 63196  1  0
 63197  1  0
 64198  1  0
 64199  1  0
 65200  1  0
 67201  1  0
 67202  1  0
 68203  1  0
 68204  1  0
 71205  1  0
 72206  1  1
 73207  1  0
 73208  1  0
 75209  1  0
 76210  1  0
 77211  1  0
 78212  1  0
 79213  1  0
 82214  1  0
 83215  1  1
 84216  1  0
 84217  1  0
 84218  1  0
 87219  1  0
 88220  1  1
 89221  1  0
 89222  1  0
 90223  1  0
 91224  1  0
 91225  1  0
 91226  1  0
 92227  1  0
 92228  1  0
 92229  1  0
 95230  1  0
 97231  1  0
 97232  1  0
 98233  1  0
 98234  1  0
 99235  1  0
 99236  1  0
100237  1  0
101238  1  0
101239  1  0
101240  1  0
104241  1  0
105242  1  1
106243  1  0
106244  1  0
112245  1  0
113246  1  6
114247  1  0
114248  1  0
115249  1  0
115250  1  0
117251  1  0
117252  1  0
121253  1  0
122254  1  1
123255  1  1
124256  1  0
124257  1  0
124258  1  0
125259  1  0
125260  1  0
126261  1  0
126262  1  0
126263  1  0
M  CHG  3  67   1 109  -1 129  -1
M  END
