
     RDKit          2D

201207  0  0  0  0  0  0  0  0999 V2000
   17.6878   -0.7098    0.0000 C   0  0  0  0  0  0  0  0  0  0  0  0
   18.9982    0.0200    0.0000 N   0  0  0  0  0  0  0  0  0  0  0  0
   20.2855   -0.7500    0.0000 C   0  0  0  0  0  0  0  0  0  0  0  0
   20.2624   -2.2498    0.0000 C   0  0  0  0  0  0  0  0  0  0  0  0
   21.5497   -3.0197    0.0000 C   0  0  0  0  0  0  0  0  0  0  0  0
   22.8602   -2.2899    0.0000 C   0  0  0  0  0  0  0  0  0  0  0  0
   22.8833   -0.7901    0.0000 C   0  0  0  0  0  0  0  0  0  0  0  0
   21.5960   -0.0201    0.0000 C   0  0  0  0  0  0  0  0  0  0  0  0
   24.3169   -0.3486    0.0000 C   0  0  0  0  0  0  0  0  0  0  0  0
   25.1797   -1.5756    0.0000 O   0  0  0  0  0  0  0  0  0  0  0  0
   24.2794   -2.7754    0.0000 C   0  0  0  0  0  0  0  0  0  0  0  0
   24.7209   -4.2090    0.0000 O   0  0  0  0  0  0  0  0  0  0  0  0
   25.7887   -0.0595    0.0000 C   0  0  0  0  0  0  0  0  0  0  0  0
   26.2742    1.3598    0.0000 C   0  0  0  0  0  0  0  0  0  0  0  0
   27.7461    1.6490    0.0000 C   0  0  0  0  0  0  0  0  0  0  0  0
   28.7325    0.5189    0.0000 C   0  0  0  0  0  0  0  0  0  0  0  0
   28.2470   -0.9004    0.0000 C   0  0  0  0  0  0  0  0  0  0  0  0
   26.7751   -1.1895    0.0000 C   0  0  0  0  0  0  0  0  0  0  0  0
   30.2043    0.8081    0.0000 O   0  0  0  0  0  0  0  0  0  0  0  0
   25.2879    2.4899    0.0000 O   0  0  0  0  0  0  0  0  0  0  0  0
   23.8160    2.2007    0.0000 C   0  0  0  0  0  0  0  0  0  0  0  0
   23.3305    0.7815    0.0000 C   0  0  0  0  0  0  0  0  0  0  0  0
   22.0852    1.1546    0.0000 C   0  0  0  0  0  0  0  0  0  0  0  0
   21.5592    1.7573    0.0000 C   0  0  0  0  0  0  0  0  0  0  0  0
   21.8181    2.5142    0.0000 C   0  0  0  0  0  0  0  0  0  0  0  0
   22.6031    2.6685    0.0000 C   0  0  0  0  0  0  0  0  0  0  0  0
   20.3714    4.1717    0.0000 O   0  0  0  0  0  0  0  0  0  0  0  0
   17.6646   -2.2097    0.0000 S   0  0  0  0  0  0  0  0  0  0  0  0
   16.4005    0.0601    0.0000 N   0  0  0  0  0  0  0  0  0  0  0  0
   15.0900   -0.6697    0.0000 C   0  0  0  0  0  0  0  0  0  0  0  0
   13.8027    0.1002    0.0000 C   0  0  0  0  0  0  0  0  0  0  0  0
   12.4922   -0.6296    0.0000 C   0  0  0  0  0  0  0  0  0  0  0  0
   12.4691   -2.1294    0.0000 O   0  0  0  0  0  0  0  0  0  0  0  0
   11.2049    0.1404    0.0000 N   0  0  0  0  0  0  0  0  0  0  0  0
    9.8945   -0.5895    0.0000 C   0  0  0  0  0  0  0  0  0  0  0  0
    8.9127   -1.7235    0.0000 C   0  0  0  0  0  0  0  0  0  0  0  0
    7.4397   -1.4403    0.0000 C   0  0  0  0  0  0  0  0  0  0  0  0
    6.4578   -2.5743    0.0000 C   0  0  0  0  0  0  0  0  0  0  0  0
    4.9848   -2.2911    0.0000 C   0  0  0  0  0  0  0  0  0  0  0  0
    4.0030   -3.4251    0.0000 N   0  0  0  0  0  0  0  0  0  0  0  0
    8.6072    0.1805    0.0000 C   0  0  0  0  0  0  0  0  0  0  0  0
    8.6303    1.6803    0.0000 O   0  0  0  0  0  0  0  0  0  0  0  0
    7.2967   -0.5494    0.0000 N   0  0  0  0  0  0  0  0  0  0  0  0
    6.0094    0.2206    0.0000 C   0  0  0  0  0  0  0  0  0  0  0  0
    5.0631    1.3844    0.0000 C   0  0  0  0  0  0  0  0  0  0  0  0
    5.5978    2.7859    0.0000 C   0  0  0  0  0  0  0  0  0  0  0  0
    4.6515    3.9497    0.0000 N   0  0  0  0  0  0  0  0  0  0  0  0
    7.0789    3.0235    0.0000 O   0  0  0  0  0  0  0  0  0  0  0  0
    4.6989   -0.5093    0.0000 C   0  0  0  0  0  0  0  0  0  0  0  0
    4.3868   -1.6835    0.0000 O   0  0  0  0  0  0  0  0  0  0  0  0
    3.4116    0.2607    0.0000 N   0  0  0  0  0  0  0  0  0  0  0  0
    2.1012   -0.4691    0.0000 C   0  0  0  0  0  0  0  0  0  0  0  0
    1.1194   -1.6032    0.0000 C   0  0  0  0  0  0  0  0  0  0  0  0
   -0.3536   -1.3199    0.0000 C   0  0  0  0  0  0  0  0  0  0  0  0
   -1.4486   -2.3451    0.0000 C   0  0  0  0  0  0  0  0  0  0  0  0
   -2.7620   -1.6206    0.0000 N   0  0  0  0  0  0  0  0  0  0  0  0
   -2.4788   -0.1475    0.0000 C   0  0  0  0  0  0  0  0  0  0  0  0
   -0.9903    0.0383    0.0000 N   0  0  0  0  0  0  0  0  0  0  0  0
    0.8139    0.3008    0.0000 C   0  0  0  0  0  0  0  0  0  0  0  0
    0.8370    1.8007    0.0000 O   0  0  0  0  0  0  0  0  0  0  0  0
   -0.4966   -0.4290    0.0000 N   0  0  0  0  0  0  0  0  0  0  0  0
   -1.7839    0.3410    0.0000 C   0  0  0  0  0  0  0  0  0  0  0  0
   -2.7302    1.5048    0.0000 C   0  0  0  0  0  0  0  0  0  0  0  0
   -3.9141    2.4259    0.0000 O   0  0  0  0  0  0  0  0  0  0  0  0
   -2.1955    2.9062    0.0000 C   0  0  0  0  0  0  0  0  0  0  0  0
   -3.0944   -0.3889    0.0000 C   0  0  0  0  0  0  0  0  0  0  0  0
   -3.4797   -1.8385    0.0000 O   0  0  0  0  0  0  0  0  0  0  0  0
   -4.3817    0.3811    0.0000 N   0  0  0  0  0  0  0  0  0  0  0  0
   -5.6921   -0.3488    0.0000 C   0  0  0  0  0  0  0  0  0  0  0  0
   -6.6739   -1.4828    0.0000 C   0  0  0  0  0  0  0  0  0  0  0  0
   -8.1469   -1.1996    0.0000 C   0  0  0  0  0  0  0  0  0  0  0  0
   -9.2419   -2.2248    0.0000 C   0  0  0  0  0  0  0  0  0  0  0  0
  -10.5553   -1.5002    0.0000 N   0  0  0  0  0  0  0  0  0  0  0  0
  -10.2721   -0.0272    0.0000 C   0  0  0  0  0  0  0  0  0  0  0  0
   -8.7836    0.1586    0.0000 N   0  0  0  0  0  0  0  0  0  0  0  0
   -6.9794    0.4212    0.0000 C   0  0  0  0  0  0  0  0  0  0  0  0
   -6.9563    1.9210    0.0000 O   0  0  0  0  0  0  0  0  0  0  0  0
   -8.2899   -0.3087    0.0000 N   0  0  0  0  0  0  0  0  0  0  0  0
   -9.5772    0.4613    0.0000 C   0  0  0  0  0  0  0  0  0  0  0  0
  -10.5235    1.6251    0.0000 C   0  0  0  0  0  0  0  0  0  0  0  0
   -9.9888    3.0266    0.0000 C   0  0  0  0  0  0  0  0  0  0  0  0
  -10.9351    4.1904    0.0000 C   0  0  0  0  0  0  0  0  0  0  0  0
  -10.4004    5.5918    0.0000 N   0  0  0  0  0  0  0  0  0  0  0  0
  -12.4162    3.9528    0.0000 O   0  0  0  0  0  0  0  0  0  0  0  0
  -10.8877   -0.2686    0.0000 C   0  0  0  0  0  0  0  0  0  0  0  0
  -11.2730   -1.7182    0.0000 O   0  0  0  0  0  0  0  0  0  0  0  0
  -12.1750    0.5014    0.0000 N   0  0  0  0  0  0  0  0  0  0  0  0
  -13.4854   -0.2284    0.0000 C   0  0  0  0  0  0  0  0  0  0  0  0
  -14.4672   -1.3625    0.0000 C   0  0  0  0  0  0  0  0  0  0  0  0
  -15.9402   -1.0792    0.0000 C   0  0  0  0  0  0  0  0  0  0  0  0
  -16.9221   -2.2133    0.0000 C   0  0  0  0  0  0  0  0  0  0  0  0
  -18.4186   -2.1117    0.0000 N   0  0  0  0  0  0  0  0  0  0  0  0
  -16.4308   -3.6306    0.0000 O   0  0  0  0  0  0  0  0  0  0  0  0
  -14.7727    0.5415    0.0000 C   0  0  0  0  0  0  0  0  0  0  0  0
  -14.7496    2.0414    0.0000 O   0  0  0  0  0  0  0  0  0  0  0  0
  -16.0832   -0.1883    0.0000 N   0  0  0  0  0  0  0  0  0  0  0  0
  -17.3705    0.5817    0.0000 C   0  0  0  0  0  0  0  0  0  0  0  0
  -18.3168    1.7455    0.0000 C   0  0  0  0  0  0  0  0  0  0  0  0
  -17.7821    3.1469    0.0000 C   0  0  0  0  0  0  0  0  0  0  0  0
  -18.7284    4.3107    0.0000 O   0  0  0  0  0  0  0  0  0  0  0  0
  -16.3010    3.3846    0.0000 O   0  0  0  0  0  0  0  0  0  0  0  0
  -18.6810   -0.1482    0.0000 C   0  0  0  0  0  0  0  0  0  0  0  0
  -18.8868   -1.6340    0.0000 O   0  0  0  0  0  0  0  0  0  0  0  0
  -19.9683    0.6218    0.0000 N   0  0  0  0  0  0  0  0  0  0  0  0
  -21.2787   -0.1081    0.0000 C   0  0  0  0  0  0  0  0  0  0  0  0
  -22.2605   -1.2421    0.0000 C   0  0  0  0  0  0  0  0  0  0  0  0
  -23.6880   -0.7814    0.0000 C   0  0  0  0  0  0  0  0  0  0  0  0
  -22.7953   -2.6436    0.0000 C   0  0  0  0  0  0  0  0  0  0  0  0
  -24.2763   -2.8812    0.0000 C   0  0  0  0  0  0  0  0  0  0  0  0
  -22.5660    0.6619    0.0000 C   0  0  0  0  0  0  0  0  0  0  0  0
  -23.9557    0.0972    0.0000 O   0  0  0  0  0  0  0  0  0  0  0  0
  -22.5429    2.1617    0.0000 O   0  0  0  0  0  0  0  0  0  0  0  0
   18.8384    1.5115    0.0000 H   0  0  0  0  0  0  0  0  0  0  0  0
   18.9519   -2.9796    0.0000 H   0  0  0  0  0  0  0  0  0  0  0  0
   21.5265   -4.5196    0.0000 H   0  0  0  0  0  0  0  0  0  0  0  0
   21.2556    1.4408    0.0000 H   0  0  0  0  0  0  0  0  0  0  0  0
   28.2316    3.0682    0.0000 H   0  0  0  0  0  0  0  0  0  0  0  0
   29.2333   -2.0304    0.0000 H   0  0  0  0  0  0  0  0  0  0  0  0
   26.2896   -2.6088    0.0000 H   0  0  0  0  0  0  0  0  0  0  0  0
   31.1907   -0.3220    0.0000 H   0  0  0  0  0  0  0  0  0  0  0  0
   21.3732   -0.9270    0.0000 H   0  0  0  0  0  0  0  0  0  0  0  0
   19.3762    1.5148    0.0000 H   0  0  0  0  0  0  0  0  0  0  0  0
   23.3152    4.7501    0.0000 H   0  0  0  0  0  0  0  0  0  0  0  0
   20.8569    5.5910    0.0000 H   0  0  0  0  0  0  0  0  0  0  0  0
   16.4236    1.5600    0.0000 H   0  0  0  0  0  0  0  0  0  0  0  0
   14.1082   -1.8038    0.0000 H   0  0  0  0  0  0  0  0  0  0  0  0
   16.0363   -1.8335    0.0000 H   0  0  0  0  0  0  0  0  0  0  0  0
   12.8564    1.2641    0.0000 H   0  0  0  0  0  0  0  0  0  0  0  0
   14.7845    1.2343    0.0000 H   0  0  0  0  0  0  0  0  0  0  0  0
   11.2281    1.6402    0.0000 H   0  0  0  0  0  0  0  0  0  0  0  0
   10.8408   -1.7533    0.0000 H   0  0  0  0  0  0  0  0  0  0  0  0
    8.5528   -3.1797    0.0000 H   0  0  0  0  0  0  0  0  0  0  0  0
   10.2000   -2.4935    0.0000 H   0  0  0  0  0  0  0  0  0  0  0  0
    6.2558   -0.5191    0.0000 H   0  0  0  0  0  0  0  0  0  0  0  0
    7.2537    0.0482    0.0000 H   0  0  0  0  0  0  0  0  0  0  0  0
    5.9231   -3.9758    0.0000 H   0  0  0  0  0  0  0  0  0  0  0  0
    7.6417   -3.4955    0.0000 H   0  0  0  0  0  0  0  0  0  0  0  0
    3.6133   -1.6838    0.0000 H   0  0  0  0  0  0  0  0  0  0  0  0
    5.3447   -0.8349    0.0000 H   0  0  0  0  0  0  0  0  0  0  0  0
    2.5755   -2.9644    0.0000 H   0  0  0  0  0  0  0  0  0  0  0  0
    4.4942   -4.8424    0.0000 H   0  0  0  0  0  0  0  0  0  0  0  0
    6.9113   -1.9990    0.0000 H   0  0  0  0  0  0  0  0  0  0  0  0
    6.9912    1.3546    0.0000 H   0  0  0  0  0  0  0  0  0  0  0  0
    3.8792    2.3056    0.0000 H   0  0  0  0  0  0  0  0  0  0  0  0
    3.8360    0.5216    0.0000 H   0  0  0  0  0  0  0  0  0  0  0  0
    5.1862    5.3511    0.0000 H   0  0  0  0  0  0  0  0  0  0  0  0
    3.1704    3.7121    0.0000 H   0  0  0  0  0  0  0  0  0  0  0  0
    3.2518    1.7522    0.0000 H   0  0  0  0  0  0  0  0  0  0  0  0
    2.8986   -1.7396    0.0000 H   0  0  0  0  0  0  0  0  0  0  0  0
    0.5846   -3.0046    0.0000 H   0  0  0  0  0  0  0  0  0  0  0  0
    2.4909   -2.2105    0.0000 H   0  0  0  0  0  0  0  0  0  0  0  0
   -1.2628   -3.8336    0.0000 H   0  0  0  0  0  0  0  0  0  0  0  0
   -4.1202   -2.2572    0.0000 H   0  0  0  0  0  0  0  0  0  0  0  0
   -3.6298    0.8143    0.0000 H   0  0  0  0  0  0  0  0  0  0  0  0
   -0.8820   -1.8787    0.0000 H   0  0  0  0  0  0  0  0  0  0  0  0
   -0.6712    1.3469    0.0000 H   0  0  0  0  0  0  0  0  0  0  0  0
   -4.0533    0.7980    0.0000 H   0  0  0  0  0  0  0  0  0  0  0  0
   -4.1773    3.7662    0.0000 H   0  0  0  0  0  0  0  0  0  0  0  0
   -2.9929    4.1767    0.0000 H   0  0  0  0  0  0  0  0  0  0  0  0
   -1.2137    4.0403    0.0000 H   0  0  0  0  0  0  0  0  0  0  0  0
   -0.8239    2.2989    0.0000 H   0  0  0  0  0  0  0  0  0  0  0  0
   -4.5415    1.8725    0.0000 H   0  0  0  0  0  0  0  0  0  0  0  0
   -4.7458   -1.5126    0.0000 H   0  0  0  0  0  0  0  0  0  0  0  0
   -7.2087   -2.8843    0.0000 H   0  0  0  0  0  0  0  0  0  0  0  0
   -5.3866   -2.2528    0.0000 H   0  0  0  0  0  0  0  0  0  0  0  0
   -9.0561   -3.7132    0.0000 H   0  0  0  0  0  0  0  0  0  0  0  0
  -11.9135   -2.1369    0.0000 H   0  0  0  0  0  0  0  0  0  0  0  0
  -11.4231    0.9346    0.0000 H   0  0  0  0  0  0  0  0  0  0  0  0
   -8.6753   -1.7583    0.0000 H   0  0  0  0  0  0  0  0  0  0  0  0
   -8.4645    1.4672    0.0000 H   0  0  0  0  0  0  0  0  0  0  0  0
  -11.7074    2.5463    0.0000 H   0  0  0  0  0  0  0  0  0  0  0  0
  -11.8466    0.9184    0.0000 H   0  0  0  0  0  0  0  0  0  0  0  0
   -9.0070    4.1606    0.0000 H   0  0  0  0  0  0  0  0  0  0  0  0
   -8.6172    2.4193    0.0000 H   0  0  0  0  0  0  0  0  0  0  0  0
  -11.3467    6.7557    0.0000 H   0  0  0  0  0  0  0  0  0  0  0  0
   -8.9193    5.8295    0.0000 H   0  0  0  0  0  0  0  0  0  0  0  0
  -12.3348    1.9929    0.0000 H   0  0  0  0  0  0  0  0  0  0  0  0
  -12.5391   -1.3923    0.0000 H   0  0  0  0  0  0  0  0  0  0  0  0
  -15.0020   -2.7639    0.0000 H   0  0  0  0  0  0  0  0  0  0  0  0
  -13.1799   -2.1324    0.0000 H   0  0  0  0  0  0  0  0  0  0  0  0
  -17.2275   -0.3093    0.0000 H   0  0  0  0  0  0  0  0  0  0  0  0
  -16.1262    0.4092    0.0000 H   0  0  0  0  0  0  0  0  0  0  0  0
  -19.3769   -3.0641    0.0000 H   0  0  0  0  0  0  0  0  0  0  0  0
  -19.2593   -0.6734    0.0000 H   0  0  0  0  0  0  0  0  0  0  0  0
  -16.4686   -1.6380    0.0000 H   0  0  0  0  0  0  0  0  0  0  0  0
  -16.3887    1.7157    0.0000 H   0  0  0  0  0  0  0  0  0  0  0  0
  -19.5007    2.6666    0.0000 H   0  0  0  0  0  0  0  0  0  0  0  0
  -19.5439    0.8827    0.0000 H   0  0  0  0  0  0  0  0  0  0  0  0
  -15.7663    4.7860    0.0000 H   0  0  0  0  0  0  0  0  0  0  0  0
  -20.1281    2.1132    0.0000 H   0  0  0  0  0  0  0  0  0  0  0  0
  -20.3324   -1.2719    0.0000 H   0  0  0  0  0  0  0  0  0  0  0  0
  -20.9732   -2.0121    0.0000 H   0  0  0  0  0  0  0  0  0  0  0  0
  -24.8676   -1.9579    0.0000 H   0  0  0  0  0  0  0  0  0  0  0  0
  -25.0208   -0.1889    0.0000 H   0  0  0  0  0  0  0  0  0  0  0  0
  -23.7367    0.5411    0.0000 H   0  0  0  0  0  0  0  0  0  0  0  0
  -22.8184   -4.1434    0.0000 H   0  0  0  0  0  0  0  0  0  0  0  0
  -21.3222   -2.9268    0.0000 H   0  0  0  0  0  0  0  0  0  0  0  0
  -24.8111   -4.2827    0.0000 H   0  0  0  0  0  0  0  0  0  0  0  0
  -25.7493   -2.5980    0.0000 H   0  0  0  0  0  0  0  0  0  0  0  0
  -24.6168   -1.4204    0.0000 H   0  0  0  0  0  0  0  0  0  0  0  0
  -23.8302    2.9317    0.0000 H   0  0  0  0  0  0  0  0  0  0  0  0
  1  2  1  0
  2  3  1  0
  3  4  2  0
  4  5  1  0
  5  6  2  0
  6  7  1  0
  7  8  2  0
  7  9  1  0
  9 10  1  0
 10 11  1  0
 11 12  2  0
  9 13  1  0
 13 14  1  0
 14 15  2  0
 15 16  1  0
 16 17  2  0
 17 18  1  0
 16 19  1  0
 14 20  1  0
 20 21  1  0
 21 22  2  0
 22 23  1  0
 23 24  2  0
 24 25  1  0
 25 26  2  0
 25 27  1  0
  1 28  2  0
  1 29  1  0
 29 30  1  0
 30 31  1  0
 31 32  1  0
 32 33  2  0
 32 34  1  0
 34 35  1  0
 35 36  1  0
 36 37  1  0
 37 38  1  0
 38 39  1  0
 39 40  1  0
 35 41  1  0
 41 42  2  0
 41 43  1  0
 43 44  1  0
 44 45  1  0
 45 46  1  0
 46 47  1  0
 46 48  2  0
 44 49  1  0
 49 50  2  0
 49 51  1  0
 51 52  1  0
 52 53  1  0
 53 54  1  0
 54 55  2  0
 55 56  1  0
 56 57  1  0
 57 58  2  0
 52 59  1  0
 59 60  2  0
 59 61  1  0
 61 62  1  0
 62 63  1  0
 63 64  1  0
 63 65  1  0
 62 66  1  0
 66 67  2  0
 66 68  1  0
 68 69  1  0
 69 70  1  0
 70 71  1  0
 71 72  2  0
 72 73  1  0
 73 74  1  0
 74 75  2  0
 69 76  1  0
 76 77  2  0
 76 78  1  0
 78 79  1  0
 79 80  1  0
 80 81  1  0
 81 82  1  0
 82 83  1  0
 82 84  2  0
 79 85  1  0
 85 86  2  0
 85 87  1  0
 87 88  1  0
 88 89  1  0
 89 90  1  0
 90 91  1  0
 91 92  1  0
 91 93  2  0
 88 94  1  0
 94 95  2  0
 94 96  1  0
 96 97  1  0
 97 98  1  0
 98 99  1  0
 99100  2  0
 99101  1  0
 97102  1  0
102103  2  0
102104  1  0
104105  1  0
105106  1  0
106107  1  0
106108  1  0
108109  1  0
105110  1  0
110111  2  0
110112  1  0
  8  3  1  0
 58 54  1  0
 75 71  1  0
 11  6  1  0
 18 13  2  0
 22  9  1  0
 26 21  1  0
  2113  1  0
  4114  1  0
  5115  1  0
  8116  1  0
 15117  1  0
 17118  1  0
 18119  1  0
 19120  1  0
 23121  1  0
 24122  1  0
 26123  1  0
 27124  1  0
 29125  1  0
 30126  1  0
 30127  1  0
 31128  1  0
 31129  1  0
 34130  1  0
 35131  1  1
 36132  1  0
 36133  1  0
 37134  1  0
 37135  1  0
 38136  1  0
 38137  1  0
 39138  1  0
 39139  1  0
 40140  1  0
 40141  1  0
 43142  1  0
 44143  1  6
 45144  1  0
 45145  1  0
 47146  1  0
 47147  1  0
 51148  1  0
 52149  1  1
 53150  1  0
 53151  1  0
 55152  1  0
 56153  1  0
 57154  1  0
 61155  1  0
 62156  1  6
 63157  1  1
 64158  1  0
 65159  1  0
 65160  1  0
 65161  1  0
 68162  1  0
 69163  1  1
 70164  1  0
 70165  1  0
 72166  1  0
 73167  1  0
 74168  1  0
 78169  1  0
 79170  1  6
 80171  1  0
 80172  1  0
 81173  1  0
 81174  1  0
 83175  1  0
 83176  1  0
 87177  1  0
 88178  1  1
 89179  1  0
 89180  1  0
 90181  1  0
 90182  1  0
 92183  1  0
 92184  1  0
 96185  1  0
 97186  1  6
 98187  1  0
 98188  1  0
101189  1  0
104190  1  0
105191  1  1
106192  1  1
107193  1  0
107194  1  0
107195  1  0
108196  1  0
108197  1  0
109198  1  0
109199  1  0
109200  1  0
112201  1  0
M  END
