
     RDKit          2D

298300  0  0  0  0  0  0  0  0999 V2000
   19.1314  -17.7018    0.0000 N   0  0  0  0  0  0  0  0  0  0  0  0
   17.9502  -16.7773    0.0000 C   0  0  0  0  0  0  0  0  0  0  0  0
   18.1603  -15.2921    0.0000 C   0  0  0  0  0  0  0  0  0  0  0  0
   16.9791  -14.3675    0.0000 O   0  0  0  0  0  0  0  0  0  0  0  0
   17.1892  -12.8823    0.0000 C   0  0  0  0  0  0  0  0  0  0  0  0
   16.0080  -11.9578    0.0000 C   0  0  0  0  0  0  0  0  0  0  0  0
   16.2181  -10.4725    0.0000 O   0  0  0  0  0  0  0  0  0  0  0  0
   15.0369   -9.5480    0.0000 C   0  0  0  0  0  0  0  0  0  0  0  0
   15.2470   -8.0628    0.0000 C   0  0  0  0  0  0  0  0  0  0  0  0
   16.6383   -7.5021    0.0000 O   0  0  0  0  0  0  0  0  0  0  0  0
   14.0658   -7.1382    0.0000 N   0  0  0  0  0  0  0  0  0  0  0  0
   14.2759   -5.6530    0.0000 C   0  0  0  0  0  0  0  0  0  0  0  0
   12.7768   -5.7040    0.0000 C   0  0  0  0  0  0  0  0  0  0  0  0
   12.0714   -7.0278    0.0000 C   0  0  0  0  0  0  0  0  0  0  0  0
   10.5723   -7.0788    0.0000 C   0  0  0  0  0  0  0  0  0  0  0  0
    9.8669   -8.4026    0.0000 N   0  0  0  0  0  0  0  0  0  0  0  0
    8.3677   -8.4536    0.0000 C   0  0  0  0  0  0  0  0  0  0  0  0
    7.6623   -9.7774    0.0000 N   0  0  0  0  0  0  0  0  0  0  0  0
    7.5740   -7.1808    0.0000 N   0  0  0  0  0  0  0  0  0  0  0  0
   14.9813   -4.3292    0.0000 C   0  0  0  0  0  0  0  0  0  0  0  0
   14.2939   -3.4788    0.0000 O   0  0  0  0  0  0  0  0  0  0  0  0
   16.4805   -4.2782    0.0000 N   0  0  0  0  0  0  0  0  0  0  0  0
   17.4029   -5.4611    0.0000 C   0  0  0  0  0  0  0  0  0  0  0  0
   18.8129   -4.9493    0.0000 C   0  0  0  0  0  0  0  0  0  0  0  0
   18.7619   -3.4502    0.0000 C   0  0  0  0  0  0  0  0  0  0  0  0
   17.3204   -3.0354    0.0000 C   0  0  0  0  0  0  0  0  0  0  0  0
   15.9966   -2.3300    0.0000 C   0  0  0  0  0  0  0  0  0  0  0  0
   15.3766   -2.8311    0.0000 O   0  0  0  0  0  0  0  0  0  0  0  0
   15.9456   -0.8309    0.0000 N   0  0  0  0  0  0  0  0  0  0  0  0
   14.6218   -0.1255    0.0000 C   0  0  0  0  0  0  0  0  0  0  0  0
   14.1570   -1.5517    0.0000 C   0  0  0  0  0  0  0  0  0  0  0  0
   15.1597   -2.6673    0.0000 C   0  0  0  0  0  0  0  0  0  0  0  0
   14.6949   -4.0934    0.0000 C   0  0  0  0  0  0  0  0  0  0  0  0
   15.8261   -5.0785    0.0000 O   0  0  0  0  0  0  0  0  0  0  0  0
   13.2004   -4.2228    0.0000 O   0  0  0  0  0  0  0  0  0  0  0  0
   13.6191    0.9901    0.0000 C   0  0  0  0  0  0  0  0  0  0  0  0
   12.3604    0.1742    0.0000 O   0  0  0  0  0  0  0  0  0  0  0  0
   14.0839    2.4163    0.0000 N   0  0  0  0  0  0  0  0  0  0  0  0
   13.0812    3.5319    0.0000 C   0  0  0  0  0  0  0  0  0  0  0  0
   12.4767    2.1591    0.0000 C   0  0  0  0  0  0  0  0  0  0  0  0
   11.4944    1.0255    0.0000 C   0  0  0  0  0  0  0  0  0  0  0  0
   10.2216    0.2317    0.0000 C   0  0  0  0  0  0  0  0  0  0  0  0
    8.7714   -0.1516    0.0000 C   0  0  0  0  0  0  0  0  0  0  0  0
   14.5105    3.9870    0.0000 C   0  0  0  0  0  0  0  0  0  0  0  0
   13.2542    5.0219    0.0000 C   0  0  0  0  0  0  0  0  0  0  0  0
   14.7533    5.0729    0.0000 O   0  0  0  0  0  0  0  0  0  0  0  0
   12.9803    6.4967    0.0000 N   0  0  0  0  0  0  0  0  0  0  0  0
   12.2839    7.8252    0.0000 C   0  0  0  0  0  0  0  0  0  0  0  0
   12.8192    9.2265    0.0000 C   0  0  0  0  0  0  0  0  0  0  0  0
   14.3182    9.2812    0.0000 C   0  0  0  0  0  0  0  0  0  0  0  0
   12.8430   10.7263    0.0000 C   0  0  0  0  0  0  0  0  0  0  0  0
   14.1538   11.4556    0.0000 C   0  0  0  0  0  0  0  0  0  0  0  0
   11.2269    8.8895    0.0000 C   0  0  0  0  0  0  0  0  0  0  0  0
   11.9683   10.1935    0.0000 O   0  0  0  0  0  0  0  0  0  0  0  0
    9.9031    9.5949    0.0000 N   0  0  0  0  0  0  0  0  0  0  0  0
    8.4302    9.8787    0.0000 C   0  0  0  0  0  0  0  0  0  0  0  0
    7.6684   11.1709    0.0000 C   0  0  0  0  0  0  0  0  0  0  0  0
    8.4066   12.4767    0.0000 C   0  0  0  0  0  0  0  0  0  0  0  0
    7.6448   13.7689    0.0000 C   0  0  0  0  0  0  0  0  0  0  0  0
    9.5469   13.4513    0.0000 C   0  0  0  0  0  0  0  0  0  0  0  0
    6.9391    9.7159    0.0000 C   0  0  0  0  0  0  0  0  0  0  0  0
    6.5557   11.1661    0.0000 O   0  0  0  0  0  0  0  0  0  0  0  0
    5.5622    9.1207    0.0000 N   0  0  0  0  0  0  0  0  0  0  0  0
    4.4219    8.1461    0.0000 C   0  0  0  0  0  0  0  0  0  0  0  0
    2.9367    8.3562    0.0000 C   0  0  0  0  0  0  0  0  0  0  0  0
    2.3760    9.7475    0.0000 C   0  0  0  0  0  0  0  0  0  0  0  0
    0.8908    9.9576    0.0000 O   0  0  0  0  0  0  0  0  0  0  0  0
    3.3006   10.9287    0.0000 O   0  0  0  0  0  0  0  0  0  0  0  0
    3.6196    6.8787    0.0000 C   0  0  0  0  0  0  0  0  0  0  0  0
    2.2468    7.4832    0.0000 O   0  0  0  0  0  0  0  0  0  0  0  0
    3.2264    5.4312    0.0000 N   0  0  0  0  0  0  0  0  0  0  0  0
    3.2774    3.9320    0.0000 C   0  0  0  0  0  0  0  0  0  0  0  0
    3.7680    2.5145    0.0000 C   0  0  0  0  0  0  0  0  0  0  0  0
    4.6547    1.3046    0.0000 C   0  0  0  0  0  0  0  0  0  0  0  0
    5.8585    0.4098    0.0000 C   0  0  0  0  0  0  0  0  0  0  0  0
    7.2727   -0.0904    0.0000 C   0  0  0  0  0  0  0  0  0  0  0  0
    1.8900    4.5021    0.0000 C   0  0  0  0  0  0  0  0  0  0  0  0
    2.1872    2.9019    0.0000 C   0  0  0  0  0  0  0  0  0  0  0  0
    2.1708    1.4019    0.0000 O   0  0  0  0  0  0  0  0  0  0  0  0
    0.7498    3.3310    0.0000 N   0  0  0  0  0  0  0  0  0  0  0  0
   -0.3404    2.3008    0.0000 C   0  0  0  0  0  0  0  0  0  0  0  0
   -1.0126    0.9598    0.0000 C   0  0  0  0  0  0  0  0  0  0  0  0
   -2.5100    0.8714    0.0000 C   0  0  0  0  0  0  0  0  0  0  0  0
   -3.3187   -0.3919    0.0000 C   0  0  0  0  0  0  0  0  0  0  0  0
   -4.7701   -0.0132    0.0000 N   0  0  0  0  0  0  0  0  0  0  0  0
   -4.8584    1.4842    0.0000 C   0  0  0  0  0  0  0  0  0  0  0  0
   -3.4616    2.0309    0.0000 N   0  0  0  0  0  0  0  0  0  0  0  0
   -1.7777    2.7299    0.0000 C   0  0  0  0  0  0  0  0  0  0  0  0
   -2.1248    4.1892    0.0000 O   0  0  0  0  0  0  0  0  0  0  0  0
   -2.8680    1.6997    0.0000 N   0  0  0  0  0  0  0  0  0  0  0  0
   -4.3053    2.1288    0.0000 C   0  0  0  0  0  0  0  0  0  0  0  0
   -5.5092    3.0236    0.0000 C   0  0  0  0  0  0  0  0  0  0  0  0
   -5.3362    4.5136    0.0000 C   0  0  0  0  0  0  0  0  0  0  0  0
   -5.3956    1.0986    0.0000 C   0  0  0  0  0  0  0  0  0  0  0  0
   -5.4120   -0.4013    0.0000 O   0  0  0  0  0  0  0  0  0  0  0  0
   -6.8329    1.5277    0.0000 N   0  0  0  0  0  0  0  0  0  0  0  0
   -7.9232    0.4975    0.0000 C   0  0  0  0  0  0  0  0  0  0  0  0
   -8.5954   -0.8435    0.0000 C   0  0  0  0  0  0  0  0  0  0  0  0
  -10.0928   -0.9318    0.0000 C   0  0  0  0  0  0  0  0  0  0  0  0
  -10.7649   -2.2728    0.0000 C   0  0  0  0  0  0  0  0  0  0  0  0
  -12.2623   -2.3612    0.0000 N   0  0  0  0  0  0  0  0  0  0  0  0
  -12.9345   -3.7021    0.0000 C   0  0  0  0  0  0  0  0  0  0  0  0
  -14.4315   -3.6073    0.0000 N   0  0  0  0  0  0  0  0  0  0  0  0
  -12.1093   -4.9547    0.0000 N   0  0  0  0  0  0  0  0  0  0  0  0
   -9.3605    0.9266    0.0000 C   0  0  0  0  0  0  0  0  0  0  0  0
   -9.7075    2.3859    0.0000 O   0  0  0  0  0  0  0  0  0  0  0  0
  -10.4508   -0.1036    0.0000 N   0  0  0  0  0  0  0  0  0  0  0  0
  -11.8881    0.3255    0.0000 C   0  0  0  0  0  0  0  0  0  0  0  0
  -13.0920    1.2203    0.0000 C   0  0  0  0  0  0  0  0  0  0  0  0
  -12.9190    2.7103    0.0000 C   0  0  0  0  0  0  0  0  0  0  0  0
  -14.1228    3.6051    0.0000 C   0  0  0  0  0  0  0  0  0  0  0  0
  -13.9498    5.0951    0.0000 N   0  0  0  0  0  0  0  0  0  0  0  0
  -15.1537    5.9899    0.0000 C   0  0  0  0  0  0  0  0  0  0  0  0
  -14.9807    7.4799    0.0000 N   0  0  0  0  0  0  0  0  0  0  0  0
  -16.5306    5.3948    0.0000 N   0  0  0  0  0  0  0  0  0  0  0  0
  -12.9784   -0.7047    0.0000 C   0  0  0  0  0  0  0  0  0  0  0  0
  -12.9947   -2.2046    0.0000 O   0  0  0  0  0  0  0  0  0  0  0  0
  -14.4157   -0.2756    0.0000 N   0  0  0  0  0  0  0  0  0  0  0  0
  -15.5059   -1.3058    0.0000 C   0  0  0  0  0  0  0  0  0  0  0  0
  -16.1781   -2.6467    0.0000 C   0  0  0  0  0  0  0  0  0  0  0  0
  -17.6536   -2.9170    0.0000 C   0  0  0  0  0  0  0  0  0  0  0  0
  -16.9433   -0.8767    0.0000 C   0  0  0  0  0  0  0  0  0  0  0  0
  -17.2903    0.5826    0.0000 O   0  0  0  0  0  0  0  0  0  0  0  0
  -18.0335   -1.9069    0.0000 N   0  0  0  0  0  0  0  0  0  0  0  0
  -19.4708   -1.4778    0.0000 C   0  0  0  0  0  0  0  0  0  0  0  0
  -20.6747   -0.5829    0.0000 C   0  0  0  0  0  0  0  0  0  0  0  0
  -20.5017    0.9070    0.0000 C   0  0  0  0  0  0  0  0  0  0  0  0
  -21.7056    1.8019    0.0000 S   0  0  0  0  0  0  0  0  0  0  0  0
  -21.5326    3.2919    0.0000 C   0  0  0  0  0  0  0  0  0  0  0  0
  -20.5611   -2.5080    0.0000 C   0  0  0  0  0  0  0  0  0  0  0  0
  -20.2141   -3.9673    0.0000 O   0  0  0  0  0  0  0  0  0  0  0  0
  -21.9984   -2.0789    0.0000 N   0  0  0  0  0  0  0  0  0  0  0  0
  -23.0887   -3.1090    0.0000 C   0  0  0  0  0  0  0  0  0  0  0  0
  -23.7609   -4.4500    0.0000 C   0  0  0  0  0  0  0  0  0  0  0  0
  -25.2583   -4.5384    0.0000 C   0  0  0  0  0  0  0  0  0  0  0  0
  -25.9304   -5.8793    0.0000 C   0  0  0  0  0  0  0  0  0  0  0  0
  -27.4278   -5.9677    0.0000 N   0  0  0  0  0  0  0  0  0  0  0  0
  -28.1000   -7.3087    0.0000 C   0  0  0  0  0  0  0  0  0  0  0  0
  -29.5974   -7.3970    0.0000 N   0  0  0  0  0  0  0  0  0  0  0  0
  -27.2748   -8.5613    0.0000 N   0  0  0  0  0  0  0  0  0  0  0  0
  -24.5260   -2.6799    0.0000 C   0  0  0  0  0  0  0  0  0  0  0  0
  -25.7337   -3.5696    0.0000 O   0  0  0  0  0  0  0  0  0  0  0  0
  -24.8731   -1.2206    0.0000 O   0  0  0  0  0  0  0  0  0  0  0  0
   18.9213  -19.1871    0.0000 H   0  0  0  0  0  0  0  0  0  0  0  0
   20.5227  -17.1412    0.0000 H   0  0  0  0  0  0  0  0  0  0  0  0
   17.2448  -18.1011    0.0000 H   0  0  0  0  0  0  0  0  0  0  0  0
   16.5240  -16.3125    0.0000 H   0  0  0  0  0  0  0  0  0  0  0  0
   19.5865  -15.7569    0.0000 H   0  0  0  0  0  0  0  0  0  0  0  0
   19.0218  -14.0641    0.0000 H   0  0  0  0  0  0  0  0  0  0  0  0
   18.6614  -13.1698    0.0000 H   0  0  0  0  0  0  0  0  0  0  0  0
   17.8946  -11.5585    0.0000 H   0  0  0  0  0  0  0  0  0  0  0  0
   15.3026  -13.2815    0.0000 H   0  0  0  0  0  0  0  0  0  0  0  0
   14.5358  -11.6703    0.0000 H   0  0  0  0  0  0  0  0  0  0  0  0
   14.1754  -10.7759    0.0000 H   0  0  0  0  0  0  0  0  0  0  0  0
   13.6108   -9.0832    0.0000 H   0  0  0  0  0  0  0  0  0  0  0  0
   12.7533   -7.8643    0.0000 H   0  0  0  0  0  0  0  0  0  0  0  0
   15.5472   -6.4491    0.0000 H   0  0  0  0  0  0  0  0  0  0  0  0
   11.4179   -5.0688    0.0000 H   0  0  0  0  0  0  0  0  0  0  0  0
   12.8043   -4.2043    0.0000 H   0  0  0  0  0  0  0  0  0  0  0  0
   11.8613   -8.5130    0.0000 H   0  0  0  0  0  0  0  0  0  0  0  0
   13.2362   -7.9729    0.0000 H   0  0  0  0  0  0  0  0  0  0  0  0
    9.1461   -6.6140    0.0000 H   0  0  0  0  0  0  0  0  0  0  0  0
   10.5997   -5.5791    0.0000 H   0  0  0  0  0  0  0  0  0  0  0  0
   10.6606   -9.6754    0.0000 H   0  0  0  0  0  0  0  0  0  0  0  0
    6.1632   -9.8284    0.0000 H   0  0  0  0  0  0  0  0  0  0  0  0
    8.4561  -11.0502    0.0000 H   0  0  0  0  0  0  0  0  0  0  0  0
    6.0749   -7.2318    0.0000 H   0  0  0  0  0  0  0  0  0  0  0  0
    8.2794   -5.8570    0.0000 H   0  0  0  0  0  0  0  0  0  0  0  0
   18.0592   -6.8098    0.0000 H   0  0  0  0  0  0  0  0  0  0  0  0
   16.2363   -6.4040    0.0000 H   0  0  0  0  0  0  0  0  0  0  0  0
   20.2985   -4.7419    0.0000 H   0  0  0  0  0  0  0  0  0  0  0  0
   19.1745   -6.4051    0.0000 H   0  0  0  0  0  0  0  0  0  0  0  0
   19.0237   -1.9732    0.0000 H   0  0  0  0  0  0  0  0  0  0  0  0
   20.2581   -3.5561    0.0000 H   0  0  0  0  0  0  0  0  0  0  0  0
   17.8835   -1.6451    0.0000 H   0  0  0  0  0  0  0  0  0  0  0  0
   17.2184   -0.0371    0.0000 H   0  0  0  0  0  0  0  0  0  0  0  0
   15.5463    1.0557    0.0000 H   0  0  0  0  0  0  0  0  0  0  0  0
   13.2324   -2.7328    0.0000 H   0  0  0  0  0  0  0  0  0  0  0  0
   12.8332   -0.8463    0.0000 H   0  0  0  0  0  0  0  0  0  0  0  0
   16.2734   -3.6720    0.0000 H   0  0  0  0  0  0  0  0  0  0  0  0
   16.3426   -1.7449    0.0000 H   0  0  0  0  0  0  0  0  0  0  0  0
   15.5783    2.5457    0.0000 H   0  0  0  0  0  0  0  0  0  0  0  0
   13.9354    1.8094    0.0000 H   0  0  0  0  0  0  0  0  0  0  0  0
   12.9353    0.7310    0.0000 H   0  0  0  0  0  0  0  0  0  0  0  0
   12.5619   -0.0283    0.0000 H   0  0  0  0  0  0  0  0  0  0  0  0
   11.8742   -0.4257    0.0000 H   0  0  0  0  0  0  0  0  0  0  0  0
   11.3577   -0.7477    0.0000 H   0  0  0  0  0  0  0  0  0  0  0  0
    9.9746   -1.2478    0.0000 H   0  0  0  0  0  0  0  0  0  0  0  0
    8.9343   -1.6427    0.0000 H   0  0  0  0  0  0  0  0  0  0  0  0
   15.7341    3.1195    0.0000 H   0  0  0  0  0  0  0  0  0  0  0  0
   15.6979    4.9036    0.0000 H   0  0  0  0  0  0  0  0  0  0  0  0
   14.1562    5.4446    0.0000 H   0  0  0  0  0  0  0  0  0  0  0  0
   14.3978    6.9873    0.0000 H   0  0  0  0  0  0  0  0  0  0  0  0
   13.7809    7.7304    0.0000 H   0  0  0  0  0  0  0  0  0  0  0  0
   11.4588    9.8583    0.0000 H   0  0  0  0  0  0  0  0  0  0  0  0
   15.0249   10.7898    0.0000 H   0  0  0  0  0  0  0  0  0  0  0  0
   15.7733    9.1796    0.0000 H   0  0  0  0  0  0  0  0  0  0  0  0
   14.4596    7.9720    0.0000 H   0  0  0  0  0  0  0  0  0  0  0  0
   12.3524   12.1438    0.0000 H   0  0  0  0  0  0  0  0  0  0  0  0
   11.3440   10.6716    0.0000 H   0  0  0  0  0  0  0  0  0  0  0  0
   14.1776   12.9554    0.0000 H   0  0  0  0  0  0  0  0  0  0  0  0
   15.6350   11.6926    0.0000 H   0  0  0  0  0  0  0  0  0  0  0  0
   14.9728   10.1989    0.0000 H   0  0  0  0  0  0  0  0  0  0  0  0
   10.4033   11.0090    0.0000 H   0  0  0  0  0  0  0  0  0  0  0  0
    9.4377   10.9900    0.0000 H   0  0  0  0  0  0  0  0  0  0  0  0
    6.4030   11.9764    0.0000 H   0  0  0  0  0  0  0  0  0  0  0  0
    6.3262   10.5012    0.0000 H   0  0  0  0  0  0  0  0  0  0  0  0
    9.6720   11.6712    0.0000 H   0  0  0  0  0  0  0  0  0  0  0  0
    8.2184   15.1549    0.0000 H   0  0  0  0  0  0  0  0  0  0  0  0
    6.4871   14.7226    0.0000 H   0  0  0  0  0  0  0  0  0  0  0  0
    6.3943   12.9406    0.0000 H   0  0  0  0  0  0  0  0  0  0  0  0
    9.4548   14.9485    0.0000 H   0  0  0  0  0  0  0  0  0  0  0  0
   10.9517   13.9771    0.0000 H   0  0  0  0  0  0  0  0  0  0  0  0
   10.3086   12.1591    0.0000 H   0  0  0  0  0  0  0  0  0  0  0  0
    4.7684   10.3935    0.0000 H   0  0  0  0  0  0  0  0  0  0  0  0
    4.0026    9.5863    0.0000 H   0  0  0  0  0  0  0  0  0  0  0  0
    1.4692    8.0457    0.0000 H   0  0  0  0  0  0  0  0  0  0  0  0
    2.6234    6.8893    0.0000 H   0  0  0  0  0  0  0  0  0  0  0  0
    1.7364    5.6042    0.0000 H   0  0  0  0  0  0  0  0  0  0  0  0
    3.0299    1.2088    0.0000 H   0  0  0  0  0  0  0  0  0  0  0  0
    2.2857    2.2848    0.0000 H   0  0  0  0  0  0  0  0  0  0  0  0
    4.1579   -0.1107    0.0000 H   0  0  0  0  0  0  0  0  0  0  0  0
    3.3059    0.6482    0.0000 H   0  0  0  0  0  0  0  0  0  0  0  0
    5.9842   -1.0849    0.0000 H   0  0  0  0  0  0  0  0  0  0  0  0
    4.6465   -0.4738    0.0000 H   0  0  0  0  0  0  0  0  0  0  0  0
    6.9888   -1.5633    0.0000 H   0  0  0  0  0  0  0  0  0  0  0  0
    0.5161    3.9002    0.0000 H   0  0  0  0  0  0  0  0  0  0  0  0
    0.9126    5.6400    0.0000 H   0  0  0  0  0  0  0  0  0  0  0  0
    2.3618    5.9260    0.0000 H   0  0  0  0  0  0  0  0  0  0  0  0
    0.2275    4.7371    0.0000 H   0  0  0  0  0  0  0  0  0  0  0  0
    0.8634    1.4059    0.0000 H   0  0  0  0  0  0  0  0  0  0  0  0
   -1.1856   -0.5302    0.0000 H   0  0  0  0  0  0  0  0  0  0  0  0
    0.4247    0.5307    0.0000 H   0  0  0  0  0  0  0  0  0  0  0  0
   -2.7719   -1.7887    0.0000 H   0  0  0  0  0  0  0  0  0  0  0  0
   -5.9296   -0.9649    0.0000 H   0  0  0  0  0  0  0  0  0  0  0  0
   -6.2109    2.1328    0.0000 H   0  0  0  0  0  0  0  0  0  0  0  0
   -2.8844    0.1998    0.0000 H   0  0  0  0  0  0  0  0  0  0  0  0
   -3.4747    3.3778    0.0000 H   0  0  0  0  0  0  0  0  0  0  0  0
   -6.8835    3.6247    0.0000 H   0  0  0  0  0  0  0  0  0  0  0  0
   -6.6174    2.0127    0.0000 H   0  0  0  0  0  0  0  0  0  0  0  0
   -6.5401    5.4084    0.0000 H   0  0  0  0  0  0  0  0  0  0  0  0
   -4.6640    5.8545    0.0000 H   0  0  0  0  0  0  0  0  0  0  0  0
   -3.8573    4.2629    0.0000 H   0  0  0  0  0  0  0  0  0  0  0  0
   -7.3553    2.9338    0.0000 H   0  0  0  0  0  0  0  0  0  0  0  0
   -6.7193   -0.3973    0.0000 H   0  0  0  0  0  0  0  0  0  0  0  0
   -8.5854   -2.3434    0.0000 H   0  0  0  0  0  0  0  0  0  0  0  0
   -7.1581   -1.2726    0.0000 H   0  0  0  0  0  0  0  0  0  0  0  0
  -11.5301   -0.5027    0.0000 H   0  0  0  0  0  0  0  0  0  0  0  0
  -10.6397    0.4649    0.0000 H   0  0  0  0  0  0  0  0  0  0  0  0
  -10.9379   -3.7628    0.0000 H   0  0  0  0  0  0  0  0  0  0  0  0
   -9.3906   -2.8739    0.0000 H   0  0  0  0  0  0  0  0  0  0  0  0
  -13.3661   -1.3455    0.0000 H   0  0  0  0  0  0  0  0  0  0  0  0
  -15.1041   -5.1314    0.0000 H   0  0  0  0  0  0  0  0  0  0  0  0
  -15.1206   -2.4452    0.0000 H   0  0  0  0  0  0  0  0  0  0  0  0
  -12.7815   -6.2957    0.0000 H   0  0  0  0  0  0  0  0  0  0  0  0
  -10.6119   -4.8664    0.0000 H   0  0  0  0  0  0  0  0  0  0  0  0
  -10.4672   -1.6035    0.0000 H   0  0  0  0  0  0  0  0  0  0  0  0
  -11.0575    1.5745    0.0000 H   0  0  0  0  0  0  0  0  0  0  0  0
  -14.5293    1.6494    0.0000 H   0  0  0  0  0  0  0  0  0  0  0  0
  -14.0686    0.0819    0.0000 H   0  0  0  0  0  0  0  0  0  0  0  0
  -12.2468    4.0513    0.0000 H   0  0  0  0  0  0  0  0  0  0  0  0
  -11.4401    2.4596    0.0000 H   0  0  0  0  0  0  0  0  0  0  0  0
  -15.5601    4.0342    0.0000 H   0  0  0  0  0  0  0  0  0  0  0  0
  -14.9534    2.3561    0.0000 H   0  0  0  0  0  0  0  0  0  0  0  0
  -12.5730    5.6903    0.0000 H   0  0  0  0  0  0  0  0  0  0  0  0
  -16.1846    8.3747    0.0000 H   0  0  0  0  0  0  0  0  0  0  0  0
  -13.6038    8.0751    0.0000 H   0  0  0  0  0  0  0  0  0  0  0  0
  -17.7344    6.2896    0.0000 H   0  0  0  0  0  0  0  0  0  0  0  0
  -16.7036    3.9048    0.0000 H   0  0  0  0  0  0  0  0  0  0  0  0
  -14.9380    1.1305    0.0000 H   0  0  0  0  0  0  0  0  0  0  0  0
  -14.3021   -2.2006    0.0000 H   0  0  0  0  0  0  0  0  0  0  0  0
  -16.3511   -4.1367    0.0000 H   0  0  0  0  0  0  0  0  0  0  0  0
  -14.6797   -2.7153    0.0000 H   0  0  0  0  0  0  0  0  0  0  0  0
  -18.3477   -4.0761    0.0000 H   0  0  0  0  0  0  0  0  0  0  0  0
  -19.1128   -2.3060    0.0000 H   0  0  0  0  0  0  0  0  0  0  0  0
  -18.2224   -1.3384    0.0000 H   0  0  0  0  0  0  0  0  0  0  0  0
  -17.8670   -3.3976    0.0000 H   0  0  0  0  0  0  0  0  0  0  0  0
  -18.6402   -0.2287    0.0000 H   0  0  0  0  0  0  0  0  0  0  0  0
  -22.0490    0.0182    0.0000 H   0  0  0  0  0  0  0  0  0  0  0  0
  -21.6514   -1.7214    0.0000 H   0  0  0  0  0  0  0  0  0  0  0  0
  -19.6711    2.1561    0.0000 H   0  0  0  0  0  0  0  0  0  0  0  0
  -19.0228    0.6563    0.0000 H   0  0  0  0  0  0  0  0  0  0  0  0
  -22.7365    4.1867    0.0000 H   0  0  0  0  0  0  0  0  0  0  0  0
  -20.8604    4.6328    0.0000 H   0  0  0  0  0  0  0  0  0  0  0  0
  -20.0537    3.0411    0.0000 H   0  0  0  0  0  0  0  0  0  0  0  0
  -22.5208   -0.6727    0.0000 H   0  0  0  0  0  0  0  0  0  0  0  0
  -21.8848   -4.0039    0.0000 H   0  0  0  0  0  0  0  0  0  0  0  0
  -23.7510   -5.9500    0.0000 H   0  0  0  0  0  0  0  0  0  0  0  0
  -22.3236   -4.8791    0.0000 H   0  0  0  0  0  0  0  0  0  0  0  0
  -26.6956   -4.1093    0.0000 H   0  0  0  0  0  0  0  0  0  0  0  0
  -25.6308   -3.0854    0.0000 H   0  0  0  0  0  0  0  0  0  0  0  0
  -26.1034   -7.3693    0.0000 H   0  0  0  0  0  0  0  0  0  0  0  0
  -24.5562   -6.4804    0.0000 H   0  0  0  0  0  0  0  0  0  0  0  0
  -28.2531   -4.7151    0.0000 H   0  0  0  0  0  0  0  0  0  0  0  0
  -30.2696   -8.7380    0.0000 H   0  0  0  0  0  0  0  0  0  0  0  0
  -30.4226   -6.1444    0.0000 H   0  0  0  0  0  0  0  0  0  0  0  0
  -27.9470   -9.9022    0.0000 H   0  0  0  0  0  0  0  0  0  0  0  0
  -25.7774   -8.4729    0.0000 H   0  0  0  0  0  0  0  0  0  0  0  0
  1  2  1  0
  2  3  1  0
  3  4  1  0
  4  5  1  0
  5  6  1  0
  6  7  1  0
  7  8  1  0
  8  9  1  0
  9 10  2  0
  9 11  1  0
 11 12  1  0
 12 13  1  0
 13 14  1  0
 14 15  1  0
 15 16  1  0
 16 17  1  0
 17 18  2  3
 17 19  1  0
 12 20  1  0
 20 21  2  0
 20 22  1  0
 22 23  1  0
 23 24  1  0
 24 25  1  0
 25 26  1  0
 26 27  1  0
 27 28  2  0
 27 29  1  0
 29 30  1  0
 30 31  1  0
 31 32  1  0
 32 33  1  0
 33 34  2  0
 33 35  1  0
 30 36  1  0
 36 37  2  0
 36 38  1  0
 39 38  1  1
 39 40  1  0
 40 41  1  0
 41 42  1  0
 42 43  1  0
 39 44  1  0
 39 45  1  0
 45 46  2  0
 45 47  1  0
 47 48  1  0
 48 49  1  0
 49 50  1  0
 49 51  1  0
 51 52  1  0
 48 53  1  0
 53 54  2  0
 53 55  1  0
 55 56  1  0
 56 57  1  0
 57 58  1  0
 58 59  1  0
 58 60  1  0
 56 61  1  0
 61 62  2  0
 61 63  1  0
 63 64  1  0
 64 65  1  0
 65 66  1  0
 66 67  2  0
 66 68  1  0
 64 69  1  0
 69 70  2  0
 69 71  1  0
 71 72  1  0
 72 73  1  0
 73 74  1  0
 74 75  1  0
 75 76  1  0
 72 77  1  0
 72 78  1  1
 78 79  2  0
 78 80  1  0
 80 81  1  0
 81 82  1  0
 82 83  1  0
 83 84  2  0
 84 85  1  0
 85 86  1  0
 86 87  2  0
 81 88  1  0
 88 89  2  0
 88 90  1  0
 90 91  1  0
 91 92  1  0
 92 93  1  0
 91 94  1  0
 94 95  2  0
 94 96  1  0
 96 97  1  0
 97 98  1  0
 98 99  1  0
 99100  1  0
100101  1  0
101102  1  0
102103  2  3
102104  1  0
 97105  1  0
105106  2  0
105107  1  0
107108  1  0
108109  1  0
109110  1  0
110111  1  0
111112  1  0
112113  1  0
113114  2  3
113115  1  0
108116  1  0
116117  2  0
116118  1  0
118119  1  0
119120  1  0
120121  1  0
119122  1  0
122123  2  0
122124  1  0
124125  1  0
125126  1  0
126127  1  0
127128  1  0
128129  1  0
125130  1  0
130131  2  0
130132  1  0
132133  1  0
133134  1  0
134135  1  0
135136  1  0
136137  1  0
137138  1  0
138139  2  3
138140  1  0
133141  1  0
141142  2  0
141143  1  0
 26 22  1  0
 87 83  1  0
 43 76  2  0
  1144  1  0
  1145  1  0
  2146  1  0
  2147  1  0
  3148  1  0
  3149  1  0
  5150  1  0
  5151  1  0
  6152  1  0
  6153  1  0
  8154  1  0
  8155  1  0
 11156  1  0
 12157  1  1
 13158  1  0
 13159  1  0
 14160  1  0
 14161  1  0
 15162  1  0
 15163  1  0
 16164  1  0
 18165  1  0
 18166  1  0
 19167  1  0
 19168  1  0
 23169  1  0
 23170  1  0
 24171  1  0
 24172  1  0
 25173  1  0
 25174  1  0
 26175  1  0
 29176  1  0
 30177  1  1
 31178  1  0
 31179  1  0
 32180  1  0
 32181  1  0
 38182  1  0
 40183  1  0
 40184  1  0
 41185  1  0
 41186  1  0
 42187  1  0
 42188  1  0
 43189  1  0
 44190  1  0
 44191  1  0
 44192  1  0
 47193  1  0
 48194  1  6
 49195  1  1
 50196  1  0
 50197  1  0
 50198  1  0
 51199  1  0
 51200  1  0
 52201  1  0
 52202  1  0
 52203  1  0
 55204  1  0
 56205  1  6
 57206  1  0
 57207  1  0
 58208  1  0
 59209  1  0
 59210  1  0
 59211  1  0
 60212  1  0
 60213  1  0
 60214  1  0
 63215  1  0
 64216  1  6
 65217  1  0
 65218  1  0
 71219  1  0
 73220  1  0
 73221  1  0
 74222  1  0
 74223  1  0
 75224  1  0
 75225  1  0
 76226  1  0
 77227  1  0
 77228  1  0
 77229  1  0
 80230  1  0
 81231  1  1
 82232  1  0
 82233  1  0
 84234  1  0
 85235  1  0
 86236  1  0
 90237  1  0
 91238  1  6
 92239  1  0
 92240  1  0
 93241  1  0
 93242  1  0
 93243  1  0
 96244  1  0
 97245  1  1
 98246  1  0
 98247  1  0
 99248  1  0
 99249  1  0
100250  1  0
100251  1  0
101252  1  0
103253  1  0
103254  1  0
104255  1  0
104256  1  0
107257  1  0
108258  1  6
109259  1  0
109260  1  0
110261  1  0
110262  1  0
111263  1  0
111264  1  0
112265  1  0
114266  1  0
114267  1  0
115268  1  0
115269  1  0
118270  1  0
119271  1  1
120272  1  0
120273  1  0
121274  1  0
121275  1  0
121276  1  0
124277  1  0
125278  1  6
126279  1  0
126280  1  0
127281  1  0
127282  1  0
129283  1  0
129284  1  0
129285  1  0
132286  1  0
133287  1  1
134288  1  0
134289  1  0
135290  1  0
135291  1  0
136292  1  0
136293  1  0
137294  1  0
139295  1  0
139296  1  0
140297  1  0
140298  1  0
M  CHG  7  18   1  35  -1  68  -1 103   1 114   1 139   1 143  -1
M  END
