
     RDKit          2D

249249  0  0  0  0  0  0  0  0999 V2000
   24.7515   -6.1623    0.0000 N   0  0  0  0  0  0  0  0  0  0  0  0
   24.2484   -4.7492    0.0000 C   0  0  0  0  0  0  0  0  0  0  0  0
   25.2206   -3.6069    0.0000 C   0  0  0  0  0  0  0  0  0  0  0  0
   24.7175   -2.1938    0.0000 C   0  0  0  0  0  0  0  0  0  0  0  0
   23.9217   -2.1466    0.0000 O   0  0  0  0  0  0  0  0  0  0  0  0
   25.6897   -1.0516    0.0000 N   0  0  0  0  0  0  0  0  0  0  0  0
   25.1866    0.3615    0.0000 C   0  0  0  0  0  0  0  0  0  0  0  0
   25.1971    1.8615    0.0000 C   0  0  0  0  0  0  0  0  0  0  0  0
   26.5013    2.6024    0.0000 C   0  0  0  0  0  0  0  0  0  0  0  0
   27.7951    1.8433    0.0000 C   0  0  0  0  0  0  0  0  0  0  0  0
   29.0994    2.5842    0.0000 C   0  0  0  0  0  0  0  0  0  0  0  0
   29.1099    4.0841    0.0000 C   0  0  0  0  0  0  0  0  0  0  0  0
   27.8161    4.8432    0.0000 C   0  0  0  0  0  0  0  0  0  0  0  0
   26.5119    4.1023    0.0000 C   0  0  0  0  0  0  0  0  0  0  0  0
   23.8823   -0.3793    0.0000 C   0  0  0  0  0  0  0  0  0  0  0  0
   23.7796   -1.1698    0.0000 O   0  0  0  0  0  0  0  0  0  0  0  0
   22.5886    0.3798    0.0000 N   0  0  0  0  0  0  0  0  0  0  0  0
   21.2843   -0.3611    0.0000 C   0  0  0  0  0  0  0  0  0  0  0  0
   20.3121   -1.5034    0.0000 C   0  0  0  0  0  0  0  0  0  0  0  0
   18.8367   -1.2326    0.0000 C   0  0  0  0  0  0  0  0  0  0  0  0
   17.8645   -2.3748    0.0000 N   0  0  0  0  0  0  0  0  0  0  0  0
   18.0066    0.0168    0.0000 O   0  0  0  0  0  0  0  0  0  0  0  0
   19.9905    0.3980    0.0000 C   0  0  0  0  0  0  0  0  0  0  0  0
   20.0011    1.8979    0.0000 O   0  0  0  0  0  0  0  0  0  0  0  0
   18.6863   -0.3429    0.0000 N   0  0  0  0  0  0  0  0  0  0  0  0
   17.3925    0.4162    0.0000 C   0  0  0  0  0  0  0  0  0  0  0  0
   16.4364    1.5720    0.0000 C   0  0  0  0  0  0  0  0  0  0  0  0
   14.9574    1.3219    0.0000 C   0  0  0  0  0  0  0  0  0  0  0  0
   15.9333    2.9851    0.0000 C   0  0  0  0  0  0  0  0  0  0  0  0
   14.4579    3.2559    0.0000 C   0  0  0  0  0  0  0  0  0  0  0  0
   16.0883   -0.3247    0.0000 C   0  0  0  0  0  0  0  0  0  0  0  0
   15.8950   -1.8122    0.0000 O   0  0  0  0  0  0  0  0  0  0  0  0
   14.7945    0.4344    0.0000 N   0  0  0  0  0  0  0  0  0  0  0  0
   13.4902   -0.3065    0.0000 C   0  0  0  0  0  0  0  0  0  0  0  0
   12.5180   -1.4487    0.0000 C   0  0  0  0  0  0  0  0  0  0  0  0
   11.0427   -1.1779    0.0000 C   0  0  0  0  0  0  0  0  0  0  0  0
   10.0705   -2.3202    0.0000 N   0  0  0  0  0  0  0  0  0  0  0  0
   10.2126    0.0715    0.0000 O   0  0  0  0  0  0  0  0  0  0  0  0
   12.1965    0.4526    0.0000 C   0  0  0  0  0  0  0  0  0  0  0  0
   12.2070    1.9526    0.0000 O   0  0  0  0  0  0  0  0  0  0  0  0
   10.8922   -0.2882    0.0000 N   0  0  0  0  0  0  0  0  0  0  0  0
    9.5985    0.4709    0.0000 C   0  0  0  0  0  0  0  0  0  0  0  0
    8.6424    1.6267    0.0000 C   0  0  0  0  0  0  0  0  0  0  0  0
    7.1634    1.3765    0.0000 C   0  0  0  0  0  0  0  0  0  0  0  0
    6.2073    2.5323    0.0000 O   0  0  0  0  0  0  0  0  0  0  0  0
    6.3158    0.1389    0.0000 O   0  0  0  0  0  0  0  0  0  0  0  0
    8.2942   -0.2700    0.0000 C   0  0  0  0  0  0  0  0  0  0  0  0
    8.1009   -1.7575    0.0000 O   0  0  0  0  0  0  0  0  0  0  0  0
    7.0005    0.4891    0.0000 N   0  0  0  0  0  0  0  0  0  0  0  0
    5.6962   -0.2518    0.0000 C   0  0  0  0  0  0  0  0  0  0  0  0
    4.7240   -1.3941    0.0000 C   0  0  0  0  0  0  0  0  0  0  0  0
    3.2486   -1.1233    0.0000 C   0  0  0  0  0  0  0  0  0  0  0  0
    2.2764   -2.2655    0.0000 C   0  0  0  0  0  0  0  0  0  0  0  0
    0.8011   -1.9947    0.0000 N   0  0  0  0  0  0  0  0  0  0  0  0
   -0.1711   -3.1370    0.0000 C   0  0  0  0  0  0  0  0  0  0  0  0
   -1.6025   -2.6883    0.0000 N   0  0  0  0  0  0  0  0  0  0  0  0
    0.3320   -4.5501    0.0000 N   0  0  0  0  0  0  0  0  0  0  0  0
    4.4025    0.5073    0.0000 C   0  0  0  0  0  0  0  0  0  0  0  0
    4.4130    2.0073    0.0000 O   0  0  0  0  0  0  0  0  0  0  0  0
    3.0982   -0.2336    0.0000 N   0  0  0  0  0  0  0  0  0  0  0  0
    1.8045    0.5255    0.0000 C   0  0  0  0  0  0  0  0  0  0  0  0
    0.8484    1.6813    0.0000 C   0  0  0  0  0  0  0  0  0  0  0  0
    1.5387    3.0130    0.0000 C   0  0  0  0  0  0  0  0  0  0  0  0
   -0.4454    2.4404    0.0000 C   0  0  0  0  0  0  0  0  0  0  0  0
   -0.4349    3.9404    0.0000 C   0  0  0  0  0  0  0  0  0  0  0  0
    0.5002   -0.2154    0.0000 C   0  0  0  0  0  0  0  0  0  0  0  0
    0.1270   -1.6682    0.0000 O   0  0  0  0  0  0  0  0  0  0  0  0
   -0.7936    0.5437    0.0000 N   0  0  0  0  0  0  0  0  0  0  0  0
   -2.0978   -0.1971    0.0000 C   0  0  0  0  0  0  0  0  0  0  0  0
   -3.0700   -1.3394    0.0000 C   0  0  0  0  0  0  0  0  0  0  0  0
   -4.5454   -1.0686    0.0000 C   0  0  0  0  0  0  0  0  0  0  0  0
   -5.5176   -2.2109    0.0000 C   0  0  0  0  0  0  0  0  0  0  0  0
   -6.9930   -1.9401    0.0000 C   0  0  0  0  0  0  0  0  0  0  0  0
   -7.9652   -3.0823    0.0000 N   0  0  0  0  0  0  0  0  0  0  0  0
   -3.3916    0.5619    0.0000 C   0  0  0  0  0  0  0  0  0  0  0  0
   -3.3811    2.0619    0.0000 O   0  0  0  0  0  0  0  0  0  0  0  0
   -4.6958   -0.1789    0.0000 N   0  0  0  0  0  0  0  0  0  0  0  0
   -5.9896    0.5802    0.0000 C   0  0  0  0  0  0  0  0  0  0  0  0
   -6.9457    1.7360    0.0000 C   0  0  0  0  0  0  0  0  0  0  0  0
   -6.4228    3.1419    0.0000 C   0  0  0  0  0  0  0  0  0  0  0  0
   -7.3789    4.2977    0.0000 C   0  0  0  0  0  0  0  0  0  0  0  0
   -6.8560    5.7036    0.0000 O   0  0  0  0  0  0  0  0  0  0  0  0
   -8.8579    4.0476    0.0000 O   0  0  0  0  0  0  0  0  0  0  0  0
   -7.2939   -0.1607    0.0000 C   0  0  0  0  0  0  0  0  0  0  0  0
   -7.6670   -1.6136    0.0000 O   0  0  0  0  0  0  0  0  0  0  0  0
   -8.5876    0.5984    0.0000 N   0  0  0  0  0  0  0  0  0  0  0  0
   -9.8919   -0.1425    0.0000 C   0  0  0  0  0  0  0  0  0  0  0  0
  -10.8641   -1.2848    0.0000 C   0  0  0  0  0  0  0  0  0  0  0  0
  -12.3394   -1.0139    0.0000 C   0  0  0  0  0  0  0  0  0  0  0  0
  -13.3116   -2.1562    0.0000 C   0  0  0  0  0  0  0  0  0  0  0  0
  -13.6332   -0.2549    0.0000 C   0  0  0  0  0  0  0  0  0  0  0  0
  -11.1856    0.6166    0.0000 C   0  0  0  0  0  0  0  0  0  0  0  0
  -11.1751    2.1166    0.0000 O   0  0  0  0  0  0  0  0  0  0  0  0
  -12.4899   -0.1243    0.0000 N   0  0  0  0  0  0  0  0  0  0  0  0
  -13.7836    0.6348    0.0000 C   0  0  0  0  0  0  0  0  0  0  0  0
  -15.0879   -0.1061    0.0000 C   0  0  0  0  0  0  0  0  0  0  0  0
  -15.2812   -1.5936    0.0000 O   0  0  0  0  0  0  0  0  0  0  0  0
  -16.3816    0.6530    0.0000 N   0  0  0  0  0  0  0  0  0  0  0  0
  -17.6859   -0.0878    0.0000 C   0  0  0  0  0  0  0  0  0  0  0  0
  -18.6581   -1.2301    0.0000 C   0  0  0  0  0  0  0  0  0  0  0  0
  -19.1810   -2.6360    0.0000 O   0  0  0  0  0  0  0  0  0  0  0  0
  -20.1555   -1.1412    0.0000 C   0  0  0  0  0  0  0  0  0  0  0  0
  -18.9796    0.6712    0.0000 C   0  0  0  0  0  0  0  0  0  0  0  0
  -18.9691    2.1712    0.0000 O   0  0  0  0  0  0  0  0  0  0  0  0
  -20.2839   -0.0696    0.0000 N   0  0  0  0  0  0  0  0  0  0  0  0
  -21.5777    0.6895    0.0000 C   0  0  0  0  0  0  0  0  0  0  0  0
  -22.5338    1.8453    0.0000 C   0  0  0  0  0  0  0  0  0  0  0  0
  -22.0109    3.2512    0.0000 C   0  0  0  0  0  0  0  0  0  0  0  0
  -22.9670    4.4070    0.0000 C   0  0  0  0  0  0  0  0  0  0  0  0
  -21.0386    4.3934    0.0000 C   0  0  0  0  0  0  0  0  0  0  0  0
  -22.8819   -0.0514    0.0000 C   0  0  0  0  0  0  0  0  0  0  0  0
  -22.8924   -1.5514    0.0000 O   0  0  0  0  0  0  0  0  0  0  0  0
  -24.1757    0.7077    0.0000 N   0  0  0  0  0  0  0  0  0  0  0  0
  -25.4799   -0.0332    0.0000 C   0  0  0  0  0  0  0  0  0  0  0  0
  -26.4522   -1.1755    0.0000 C   0  0  0  0  0  0  0  0  0  0  0  0
  -27.9275   -0.9046    0.0000 C   0  0  0  0  0  0  0  0  0  0  0  0
  -26.9751   -2.5814    0.0000 C   0  0  0  0  0  0  0  0  0  0  0  0
  -26.0190   -3.7372    0.0000 C   0  0  0  0  0  0  0  0  0  0  0  0
  -26.7737    0.7259    0.0000 C   0  0  0  0  0  0  0  0  0  0  0  0
  -28.1585    0.1495    0.0000 O   0  0  0  0  0  0  0  0  0  0  0  0
  -26.7632    2.2259    0.0000 O   0  0  0  0  0  0  0  0  0  0  0  0
   23.7793   -7.3046    0.0000 H   0  0  0  0  0  0  0  0  0  0  0  0
   26.2269   -6.4331    0.0000 H   0  0  0  0  0  0  0  0  0  0  0  0
   22.9441   -5.4901    0.0000 H   0  0  0  0  0  0  0  0  0  0  0  0
   23.2923   -3.5934    0.0000 H   0  0  0  0  0  0  0  0  0  0  0  0
   26.1767   -4.7627    0.0000 H   0  0  0  0  0  0  0  0  0  0  0  0
   26.5249   -2.8661    0.0000 H   0  0  0  0  0  0  0  0  0  0  0  0
   27.1650   -1.3224    0.0000 H   0  0  0  0  0  0  0  0  0  0  0  0
   26.6656    0.6117    0.0000 H   0  0  0  0  0  0  0  0  0  0  0  0
   23.7181    1.6114    0.0000 H   0  0  0  0  0  0  0  0  0  0  0  0
   24.6939    3.2746    0.0000 H   0  0  0  0  0  0  0  0  0  0  0  0
   27.7846    0.3433    0.0000 H   0  0  0  0  0  0  0  0  0  0  0  0
   30.3931    1.8251    0.0000 H   0  0  0  0  0  0  0  0  0  0  0  0
   30.4141    4.8250    0.0000 H   0  0  0  0  0  0  0  0  0  0  0  0
   27.8266    6.3432    0.0000 H   0  0  0  0  0  0  0  0  0  0  0  0
   25.2181    4.8614    0.0000 H   0  0  0  0  0  0  0  0  0  0  0  0
   22.5991    1.8797    0.0000 H   0  0  0  0  0  0  0  0  0  0  0  0
   22.2404   -1.5169    0.0000 H   0  0  0  0  0  0  0  0  0  0  0  0
   19.7892   -2.9093    0.0000 H   0  0  0  0  0  0  0  0  0  0  0  0
   21.6058   -2.2625    0.0000 H   0  0  0  0  0  0  0  0  0  0  0  0
   16.3671   -2.2859    0.0000 H   0  0  0  0  0  0  0  0  0  0  0  0
   18.3676   -3.7879    0.0000 H   0  0  0  0  0  0  0  0  0  0  0  0
   18.3131   -1.7957    0.0000 H   0  0  0  0  0  0  0  0  0  0  0  0
   18.3647    1.5585    0.0000 H   0  0  0  0  0  0  0  0  0  0  0  0
   17.7407    2.3129    0.0000 H   0  0  0  0  0  0  0  0  0  0  0  0
   13.8461    2.3461    0.0000 H   0  0  0  0  0  0  0  0  0  0  0  0
   13.6532    0.5810    0.0000 H   0  0  0  0  0  0  0  0  0  0  0  0
   14.7381   -0.1620    0.0000 H   0  0  0  0  0  0  0  0  0  0  0  0
   15.9438    4.4851    0.0000 H   0  0  0  0  0  0  0  0  0  0  0  0
   17.4123    3.2352    0.0000 H   0  0  0  0  0  0  0  0  0  0  0  0
   13.9548    4.6690    0.0000 H   0  0  0  0  0  0  0  0  0  0  0  0
   12.9789    3.0058    0.0000 H   0  0  0  0  0  0  0  0  0  0  0  0
   14.2647    1.7684    0.0000 H   0  0  0  0  0  0  0  0  0  0  0  0
   14.8050    1.9344    0.0000 H   0  0  0  0  0  0  0  0  0  0  0  0
   14.4463   -1.4623    0.0000 H   0  0  0  0  0  0  0  0  0  0  0  0
   11.9951   -2.8546    0.0000 H   0  0  0  0  0  0  0  0  0  0  0  0
   13.8118   -2.2078    0.0000 H   0  0  0  0  0  0  0  0  0  0  0  0
    8.5731   -2.2312    0.0000 H   0  0  0  0  0  0  0  0  0  0  0  0
   10.5736   -3.7333    0.0000 H   0  0  0  0  0  0  0  0  0  0  0  0
   10.5191   -1.7411    0.0000 H   0  0  0  0  0  0  0  0  0  0  0  0
   10.5707    1.6131    0.0000 H   0  0  0  0  0  0  0  0  0  0  0  0
    8.1393    3.0398    0.0000 H   0  0  0  0  0  0  0  0  0  0  0  0
    9.9467    2.3675    0.0000 H   0  0  0  0  0  0  0  0  0  0  0  0
    6.6477    1.9470    0.0000 H   0  0  0  0  0  0  0  0  0  0  0  0
    6.6523   -1.4076    0.0000 H   0  0  0  0  0  0  0  0  0  0  0  0
    4.3764   -2.8532    0.0000 H   0  0  0  0  0  0  0  0  0  0  0  0
    6.0177   -2.1532    0.0000 H   0  0  0  0  0  0  0  0  0  0  0  0
    1.9549   -0.3642    0.0000 H   0  0  0  0  0  0  0  0  0  0  0  0
    3.0501    0.3636    0.0000 H   0  0  0  0  0  0  0  0  0  0  0  0
    1.7535   -3.6714    0.0000 H   0  0  0  0  0  0  0  0  0  0  0  0
    3.4680   -3.1767    0.0000 H   0  0  0  0  0  0  0  0  0  0  0  0
   -0.0290   -0.7453    0.0000 H   0  0  0  0  0  0  0  0  0  0  0  0
   -2.6187   -4.0084    0.0000 H   0  0  0  0  0  0  0  0  0  0  0  0
   -1.9950   -1.3956    0.0000 H   0  0  0  0  0  0  0  0  0  0  0  0
   -0.6402   -5.6924    0.0000 H   0  0  0  0  0  0  0  0  0  0  0  0
    1.8074   -4.8209    0.0000 H   0  0  0  0  0  0  0  0  0  0  0  0
    2.7250   -1.6864    0.0000 H   0  0  0  0  0  0  0  0  0  0  0  0
    2.9087    1.5408    0.0000 H   0  0  0  0  0  0  0  0  0  0  0  0
   -0.3714    0.8082    0.0000 H   0  0  0  0  0  0  0  0  0  0  0  0
    0.5735    4.3708    0.0000 H   0  0  0  0  0  0  0  0  0  0  0  0
    2.3435    4.2295    0.0000 H   0  0  0  0  0  0  0  0  0  0  0  0
    2.7479    2.4915    0.0000 H   0  0  0  0  0  0  0  0  0  0  0  0
   -1.9207    2.7112    0.0000 H   0  0  0  0  0  0  0  0  0  0  0  0
   -1.2930    1.2028    0.0000 H   0  0  0  0  0  0  0  0  0  0  0  0
   -1.7286    4.6994    0.0000 H   0  0  0  0  0  0  0  0  0  0  0  0
    0.0880    5.3463    0.0000 H   0  0  0  0  0  0  0  0  0  0  0  0
    1.0622    4.0346    0.0000 H   0  0  0  0  0  0  0  0  0  0  0  0
   -1.1463    2.0017    0.0000 H   0  0  0  0  0  0  0  0  0  0  0  0
   -1.1417   -1.3529    0.0000 H   0  0  0  0  0  0  0  0  0  0  0  0
   -3.4177   -2.7986    0.0000 H   0  0  0  0  0  0  0  0  0  0  0  0
   -1.6311   -1.7629    0.0000 H   0  0  0  0  0  0  0  0  0  0  0  0
   -5.7370   -0.1575    0.0000 H   0  0  0  0  0  0  0  0  0  0  0  0
   -4.7439    0.4182    0.0000 H   0  0  0  0  0  0  0  0  0  0  0  0
   -5.8652   -3.6700    0.0000 H   0  0  0  0  0  0  0  0  0  0  0  0
   -4.3260   -3.1220    0.0000 H   0  0  0  0  0  0  0  0  0  0  0  0
   -8.3696   -1.3443    0.0000 H   0  0  0  0  0  0  0  0  0  0  0  0
   -6.6453   -0.4809    0.0000 H   0  0  0  0  0  0  0  0  0  0  0  0
   -9.3965   -2.6337    0.0000 H   0  0  0  0  0  0  0  0  0  0  0  0
   -8.4881   -4.4882    0.0000 H   0  0  0  0  0  0  0  0  0  0  0  0
   -6.7736   -3.9935    0.0000 H   0  0  0  0  0  0  0  0  0  0  0  0
   -5.0690   -1.6318    0.0000 H   0  0  0  0  0  0  0  0  0  0  0  0
   -4.8854    1.5954    0.0000 H   0  0  0  0  0  0  0  0  0  0  0  0
   -8.1373    2.6471    0.0000 H   0  0  0  0  0  0  0  0  0  0  0  0
   -8.1654    0.8629    0.0000 H   0  0  0  0  0  0  0  0  0  0  0  0
   -5.4506    4.2841    0.0000 H   0  0  0  0  0  0  0  0  0  0  0  0
   -5.0462    2.5461    0.0000 H   0  0  0  0  0  0  0  0  0  0  0  0
   -8.7600    2.0884    0.0000 H   0  0  0  0  0  0  0  0  0  0  0  0
   -9.0838   -1.4062    0.0000 H   0  0  0  0  0  0  0  0  0  0  0  0
  -11.2117   -2.7439    0.0000 H   0  0  0  0  0  0  0  0  0  0  0  0
   -9.4874   -1.8805    0.0000 H   0  0  0  0  0  0  0  0  0  0  0  0
  -12.5379    0.4729    0.0000 H   0  0  0  0  0  0  0  0  0  0  0  0
  -14.8087   -2.2504    0.0000 H   0  0  0  0  0  0  0  0  0  0  0  0
  -13.8345   -3.5621    0.0000 H   0  0  0  0  0  0  0  0  0  0  0  0
  -12.1201   -3.0674    0.0000 H   0  0  0  0  0  0  0  0  0  0  0  0
  -13.9859    1.2031    0.0000 H   0  0  0  0  0  0  0  0  0  0  0  0
  -15.1302   -0.3491    0.0000 H   0  0  0  0  0  0  0  0  0  0  0  0
  -14.3235   -1.5865    0.0000 H   0  0  0  0  0  0  0  0  0  0  0  0
  -12.8630   -1.5771    0.0000 H   0  0  0  0  0  0  0  0  0  0  0  0
  -14.7397    1.7906    0.0000 H   0  0  0  0  0  0  0  0  0  0  0  0
  -12.8114    1.7771    0.0000 H   0  0  0  0  0  0  0  0  0  0  0  0
  -16.3711    2.1530    0.0000 H   0  0  0  0  0  0  0  0  0  0  0  0
  -16.7298   -1.2436    0.0000 H   0  0  0  0  0  0  0  0  0  0  0  0
  -17.3644   -1.9892    0.0000 H   0  0  0  0  0  0  0  0  0  0  0  0
  -18.2249   -3.7918    0.0000 H   0  0  0  0  0  0  0  0  0  0  0  0
  -21.1057   -2.1016    0.0000 H   0  0  0  0  0  0  0  0  0  0  0  0
  -21.4272   -0.2002    0.0000 H   0  0  0  0  0  0  0  0  0  0  0  0
  -20.3320    0.5275    0.0000 H   0  0  0  0  0  0  0  0  0  0  0  0
  -20.4772   -1.5571    0.0000 H   0  0  0  0  0  0  0  0  0  0  0  0
  -20.4735    1.7047    0.0000 H   0  0  0  0  0  0  0  0  0  0  0  0
  -23.8275    2.6044    0.0000 H   0  0  0  0  0  0  0  0  0  0  0  0
  -23.7535    0.9722    0.0000 H   0  0  0  0  0  0  0  0  0  0  0  0
  -20.6342    2.6554    0.0000 H   0  0  0  0  0  0  0  0  0  0  0  0
  -22.6193    5.8661    0.0000 H   0  0  0  0  0  0  0  0  0  0  0  0
  -24.2607    5.1661    0.0000 H   0  0  0  0  0  0  0  0  0  0  0  0
  -24.0712    3.3917    0.0000 H   0  0  0  0  0  0  0  0  0  0  0  0
  -21.3658    5.8573    0.0000 H   0  0  0  0  0  0  0  0  0  0  0  0
  -19.7344    5.1343    0.0000 H   0  0  0  0  0  0  0  0  0  0  0  0
  -20.0825    3.2376    0.0000 H   0  0  0  0  0  0  0  0  0  0  0  0
  -24.3481    2.1977    0.0000 H   0  0  0  0  0  0  0  0  0  0  0  0
  -24.5238   -1.1890    0.0000 H   0  0  0  0  0  0  0  0  0  0  0  0
  -25.0755   -1.7712    0.0000 H   0  0  0  0  0  0  0  0  0  0  0  0
  -29.0317   -1.9199    0.0000 H   0  0  0  0  0  0  0  0  0  0  0  0
  -29.2212   -0.1456    0.0000 H   0  0  0  0  0  0  0  0  0  0  0  0
  -27.9433    0.5953    0.0000 H   0  0  0  0  0  0  0  0  0  0  0  0
  -27.9473   -3.7237    0.0000 H   0  0  0  0  0  0  0  0  0  0  0  0
  -28.3517   -1.9856    0.0000 H   0  0  0  0  0  0  0  0  0  0  0  0
  -26.5419   -5.1431    0.0000 H   0  0  0  0  0  0  0  0  0  0  0  0
  -24.7252   -4.4963    0.0000 H   0  0  0  0  0  0  0  0  0  0  0  0
  -24.9147   -2.7219    0.0000 H   0  0  0  0  0  0  0  0  0  0  0  0
  1  2  1  0
  2  3  1  0
  3  4  1  0
  4  5  2  0
  4  6  1  0
  6  7  1  0
  7  8  1  0
  8  9  1  0
  9 10  2  0
 10 11  1  0
 11 12  2  0
 12 13  1  0
 13 14  2  0
  7 15  1  0
 15 16  2  0
 15 17  1  0
 17 18  1  0
 18 19  1  0
 19 20  1  0
 20 21  1  0
 20 22  2  0
 18 23  1  0
 23 24  2  0
 23 25  1  0
 25 26  1  0
 26 27  1  0
 27 28  1  0
 27 29  1  0
 29 30  1  0
 26 31  1  0
 31 32  2  0
 31 33  1  0
 33 34  1  0
 34 35  1  0
 35 36  1  0
 36 37  1  0
 36 38  2  0
 34 39  1  0
 39 40  2  0
 39 41  1  0
 41 42  1  0
 42 43  1  0
 43 44  1  0
 44 45  2  0
 44 46  1  0
 42 47  1  0
 47 48  2  0
 47 49  1  0
 49 50  1  0
 50 51  1  0
 51 52  1  0
 52 53  1  0
 53 54  1  0
 54 55  1  0
 55 56  2  3
 55 57  1  0
 50 58  1  0
 58 59  2  0
 58 60  1  0
 60 61  1  0
 61 62  1  0
 62 63  1  0
 62 64  1  0
 64 65  1  0
 61 66  1  0
 66 67  2  0
 66 68  1  0
 68 69  1  0
 69 70  1  0
 70 71  1  0
 71 72  1  0
 72 73  1  0
 73 74  1  0
 69 75  1  0
 75 76  2  0
 75 77  1  0
 77 78  1  0
 78 79  1  0
 79 80  1  0
 80 81  1  0
 81 82  2  0
 81 83  1  0
 78 84  1  0
 84 85  2  0
 84 86  1  0
 86 87  1  0
 87 88  1  0
 88 89  1  0
 89 90  1  0
 89 91  1  0
 87 92  1  0
 92 93  2  0
 92 94  1  0
 94 95  1  0
 95 96  1  0
 96 97  2  0
 96 98  1  0
 98 99  1  0
 99100  1  0
100101  1  0
100102  1  0
 99103  1  0
103104  2  0
103105  1  0
105106  1  0
106107  1  0
107108  1  0
108109  1  0
108110  1  0
106111  1  0
111112  2  0
111113  1  0
113114  1  0
114115  1  0
115116  1  0
115117  1  0
117118  1  0
114119  1  0
119120  2  0
119121  1  0
 14  9  1  0
  1122  1  0
  1123  1  0
  2124  1  0
  2125  1  0
  3126  1  0
  3127  1  0
  6128  1  0
  7129  1  6
  8130  1  0
  8131  1  0
 10132  1  0
 11133  1  0
 12134  1  0
 13135  1  0
 14136  1  0
 17137  1  0
 18138  1  1
 19139  1  0
 19140  1  0
 21141  1  0
 21142  1  0
 25143  1  0
 26144  1  6
 27145  1  6
 28146  1  0
 28147  1  0
 28148  1  0
 29149  1  0
 29150  1  0
 30151  1  0
 30152  1  0
 30153  1  0
 33154  1  0
 34155  1  1
 35156  1  0
 35157  1  0
 37158  1  0
 37159  1  0
 41160  1  0
 42161  1  6
 43162  1  0
 43163  1  0
 49164  1  0
 50165  1  1
 51166  1  0
 51167  1  0
 52168  1  0
 52169  1  0
 53170  1  0
 53171  1  0
 54172  1  0
 56173  1  0
 56174  1  0
 57175  1  0
 57176  1  0
 60177  1  0
 61178  1  6
 62179  1  1
 63180  1  0
 63181  1  0
 63182  1  0
 64183  1  0
 64184  1  0
 65185  1  0
 65186  1  0
 65187  1  0
 68188  1  0
 69189  1  1
 70190  1  0
 70191  1  0
 71192  1  0
 71193  1  0
 72194  1  0
 72195  1  0
 73196  1  0
 73197  1  0
 74198  1  0
 74199  1  0
 74200  1  0
 77201  1  0
 78202  1  6
 79203  1  0
 79204  1  0
 80205  1  0
 80206  1  0
 86207  1  0
 87208  1  1
 88209  1  0
 88210  1  0
 89211  1  0
 90212  1  0
 90213  1  0
 90214  1  0
 91215  1  0
 91216  1  0
 91217  1  0
 94218  1  0
 95219  1  0
 95220  1  0
 98221  1  0
 99222  1  1
100223  1  1
101224  1  0
102225  1  0
102226  1  0
102227  1  0
105228  1  0
106229  1  6
107230  1  0
107231  1  0
108232  1  0
109233  1  0
109234  1  0
109235  1  0
110236  1  0
110237  1  0
110238  1  0
113239  1  0
114240  1  1
115241  1  1
116242  1  0
116243  1  0
116244  1  0
117245  1  0
117246  1  0
118247  1  0
118248  1  0
118249  1  0
M  CHG  5  46  -1  56   1  74   1  83  -1 121  -1
M  END
