
     RDKit          2D

302309  0  0  0  0  0  0  0  0999 V2000
   19.9824   -3.4997    0.0000 C   0  0  0  0  0  0  0  0  0  0  0  0
   21.3193   -2.8195    0.0000 N   0  0  0  0  0  0  0  0  0  0  0  0
   22.5769   -3.6372    0.0000 C   0  0  0  0  0  0  0  0  0  0  0  0
   22.4975   -5.1351    0.0000 C   0  0  0  0  0  0  0  0  0  0  0  0
   23.7550   -5.9528    0.0000 C   0  0  0  0  0  0  0  0  0  0  0  0
   25.0919   -5.2726    0.0000 C   0  0  0  0  0  0  0  0  0  0  0  0
   25.1713   -3.7747    0.0000 C   0  0  0  0  0  0  0  0  0  0  0  0
   23.9138   -2.9570    0.0000 C   0  0  0  0  0  0  0  0  0  0  0  0
   26.6204   -3.3873    0.0000 C   0  0  0  0  0  0  0  0  0  0  0  0
   27.4367   -4.6458    0.0000 O   0  0  0  0  0  0  0  0  0  0  0  0
   26.4920   -5.8110    0.0000 C   0  0  0  0  0  0  0  0  0  0  0  0
   26.8794   -7.2601    0.0000 O   0  0  0  0  0  0  0  0  0  0  0  0
   28.1021   -3.1535    0.0000 C   0  0  0  0  0  0  0  0  0  0  0  0
   28.6405   -1.7535    0.0000 C   0  0  0  0  0  0  0  0  0  0  0  0
   30.1221   -1.5197    0.0000 C   0  0  0  0  0  0  0  0  0  0  0  0
   31.0654   -2.6859    0.0000 C   0  0  0  0  0  0  0  0  0  0  0  0
   30.5271   -4.0860    0.0000 C   0  0  0  0  0  0  0  0  0  0  0  0
   29.0454   -4.3198    0.0000 C   0  0  0  0  0  0  0  0  0  0  0  0
   32.5471   -2.4521    0.0000 O   0  0  0  0  0  0  0  0  0  0  0  0
   27.6972   -0.5872    0.0000 O   0  0  0  0  0  0  0  0  0  0  0  0
   26.2155   -0.8210    0.0000 C   0  0  0  0  0  0  0  0  0  0  0  0
   25.6771   -2.2210    0.0000 C   0  0  0  0  0  0  0  0  0  0  0  0
   24.4467   -1.8015    0.0000 C   0  0  0  0  0  0  0  0  0  0  0  0
   23.9436   -1.1795    0.0000 C   0  0  0  0  0  0  0  0  0  0  0  0
   24.2307   -0.4328    0.0000 C   0  0  0  0  0  0  0  0  0  0  0  0
   25.0209   -0.3081    0.0000 C   0  0  0  0  0  0  0  0  0  0  0  0
   22.8472    1.2778    0.0000 O   0  0  0  0  0  0  0  0  0  0  0  0
   19.9031   -4.9976    0.0000 S   0  0  0  0  0  0  0  0  0  0  0  0
   18.7249   -2.6821    0.0000 N   0  0  0  0  0  0  0  0  0  0  0  0
   17.3880   -3.3623    0.0000 C   0  0  0  0  0  0  0  0  0  0  0  0
   16.1305   -2.5446    0.0000 C   0  0  0  0  0  0  0  0  0  0  0  0
   14.7936   -3.2248    0.0000 C   0  0  0  0  0  0  0  0  0  0  0  0
   14.9453   -4.0074    0.0000 O   0  0  0  0  0  0  0  0  0  0  0  0
   13.5360   -2.4071    0.0000 N   0  0  0  0  0  0  0  0  0  0  0  0
   12.1991   -3.0873    0.0000 C   0  0  0  0  0  0  0  0  0  0  0  0
   13.1012   -4.2858    0.0000 C   0  0  0  0  0  0  0  0  0  0  0  0
   14.5901   -4.1038    0.0000 C   0  0  0  0  0  0  0  0  0  0  0  0
   15.4921   -5.3023    0.0000 N   0  0  0  0  0  0  0  0  0  0  0  0
   15.4936   -2.9065    0.0000 O   0  0  0  0  0  0  0  0  0  0  0  0
   10.7102   -3.2692    0.0000 C   0  0  0  0  0  0  0  0  0  0  0  0
   10.4748   -4.7507    0.0000 O   0  0  0  0  0  0  0  0  0  0  0  0
    9.8082   -2.0708    0.0000 N   0  0  0  0  0  0  0  0  0  0  0  0
    8.3193   -2.2527    0.0000 C   0  0  0  0  0  0  0  0  0  0  0  0
    8.7570   -3.6874    0.0000 C   0  0  0  0  0  0  0  0  0  0  0  0
   10.2183   -4.0257    0.0000 C   0  0  0  0  0  0  0  0  0  0  0  0
   10.6561   -5.4604    0.0000 C   0  0  0  0  0  0  0  0  0  0  0  0
   12.0653   -5.9743    0.0000 N   0  0  0  0  0  0  0  0  0  0  0  0
    9.6324   -6.5568    0.0000 O   0  0  0  0  0  0  0  0  0  0  0  0
    6.8579   -1.9144    0.0000 C   0  0  0  0  0  0  0  0  0  0  0  0
    6.1300   -3.2260    0.0000 O   0  0  0  0  0  0  0  0  0  0  0  0
    6.4202   -0.4797    0.0000 N   0  0  0  0  0  0  0  0  0  0  0  0
    4.9588   -0.1414    0.0000 C   0  0  0  0  0  0  0  0  0  0  0  0
    4.8794   -1.6393    0.0000 C   0  0  0  0  0  0  0  0  0  0  0  0
    6.1370   -2.4570    0.0000 C   0  0  0  0  0  0  0  0  0  0  0  0
    6.0576   -3.9549    0.0000 C   0  0  0  0  0  0  0  0  0  0  0  0
    7.5983   -2.7953    0.0000 C   0  0  0  0  0  0  0  0  0  0  0  0
    3.7013    0.6762    0.0000 C   0  0  0  0  0  0  0  0  0  0  0  0
    2.5687   -0.3073    0.0000 O   0  0  0  0  0  0  0  0  0  0  0  0
    3.7807    2.1741    0.0000 N   0  0  0  0  0  0  0  0  0  0  0  0
    2.5231    2.9918    0.0000 C   0  0  0  0  0  0  0  0  0  0  0  0
    2.3489    1.5020    0.0000 C   0  0  0  0  0  0  0  0  0  0  0  0
    1.8959    0.0720    0.0000 C   0  0  0  0  0  0  0  0  0  0  0  0
    1.1804   -1.2464    0.0000 C   0  0  0  0  0  0  0  0  0  0  0  0
    0.2284   -2.4055    0.0000 C   0  0  0  0  0  0  0  0  0  0  0  0
   -0.9258   -3.3635    0.0000 C   0  0  0  0  0  0  0  0  0  0  0  0
   -2.2405   -4.0858    0.0000 C   0  0  0  0  0  0  0  0  0  0  0  0
   -3.6680   -4.5463    0.0000 C   0  0  0  0  0  0  0  0  0  0  0  0
    3.8142    3.7555    0.0000 C   0  0  0  0  0  0  0  0  0  0  0  0
    2.4122    4.4877    0.0000 C   0  0  0  0  0  0  0  0  0  0  0  0
    3.8490    4.9187    0.0000 O   0  0  0  0  0  0  0  0  0  0  0  0
    2.0202    5.9356    0.0000 N   0  0  0  0  0  0  0  0  0  0  0  0
    1.3613    7.2831    0.0000 C   0  0  0  0  0  0  0  0  0  0  0  0
    2.0346    8.6235    0.0000 C   0  0  0  0  0  0  0  0  0  0  0  0
    3.5321    8.7107    0.0000 C   0  0  0  0  0  0  0  0  0  0  0  0
    4.2053   10.0511    0.0000 C   0  0  0  0  0  0  0  0  0  0  0  0
    5.7028   10.1382    0.0000 N   0  0  0  0  0  0  0  0  0  0  0  0
    6.3761   11.4787    0.0000 C   0  0  0  0  0  0  0  0  0  0  0  0
    7.8735   11.5658    0.0000 N   0  0  0  0  0  0  0  0  0  0  0  0
    5.5519   12.7319    0.0000 N   0  0  0  0  0  0  0  0  0  0  0  0
    0.4593    8.4816    0.0000 C   0  0  0  0  0  0  0  0  0  0  0  0
    1.4350    9.6209    0.0000 O   0  0  0  0  0  0  0  0  0  0  0  0
   -0.6532    9.4877    0.0000 N   0  0  0  0  0  0  0  0  0  0  0  0
   -1.9361   10.2651    0.0000 C   0  0  0  0  0  0  0  0  0  0  0  0
   -2.0944   11.7567    0.0000 C   0  0  0  0  0  0  0  0  0  0  0  0
   -0.8817   12.6396    0.0000 O   0  0  0  0  0  0  0  0  0  0  0  0
   -3.3429   10.7856    0.0000 C   0  0  0  0  0  0  0  0  0  0  0  0
   -3.1380   12.2716    0.0000 O   0  0  0  0  0  0  0  0  0  0  0  0
   -4.8227   11.0305    0.0000 N   0  0  0  0  0  0  0  0  0  0  0  0
   -6.3222   10.9910    0.0000 C   0  0  0  0  0  0  0  0  0  0  0  0
   -7.2618   12.1602    0.0000 C   0  0  0  0  0  0  0  0  0  0  0  0
   -6.7190   13.5586    0.0000 C   0  0  0  0  0  0  0  0  0  0  0  0
   -5.2366   13.7876    0.0000 C   0  0  0  0  0  0  0  0  0  0  0  0
   -4.6938   15.1860    0.0000 C   0  0  0  0  0  0  0  0  0  0  0  0
   -5.6334   16.3552    0.0000 C   0  0  0  0  0  0  0  0  0  0  0  0
   -7.1158   16.1262    0.0000 C   0  0  0  0  0  0  0  0  0  0  0  0
   -7.6586   14.7278    0.0000 C   0  0  0  0  0  0  0  0  0  0  0  0
   -7.7871   10.6683    0.0000 C   0  0  0  0  0  0  0  0  0  0  0  0
   -8.4181   12.0291    0.0000 O   0  0  0  0  0  0  0  0  0  0  0  0
   -9.1644   10.0743    0.0000 N   0  0  0  0  0  0  0  0  0  0  0  0
  -10.4045    9.2303    0.0000 C   0  0  0  0  0  0  0  0  0  0  0  0
  -11.8271    9.7059    0.0000 C   0  0  0  0  0  0  0  0  0  0  0  0
  -12.1264   11.1758    0.0000 C   0  0  0  0  0  0  0  0  0  0  0  0
  -11.0032   12.1699    0.0000 C   0  0  0  0  0  0  0  0  0  0  0  0
  -11.3026   13.6398    0.0000 C   0  0  0  0  0  0  0  0  0  0  0  0
  -12.7252   14.1154    0.0000 C   0  0  0  0  0  0  0  0  0  0  0  0
  -13.8484   13.1212    0.0000 C   0  0  0  0  0  0  0  0  0  0  0  0
  -13.5490   11.6514    0.0000 C   0  0  0  0  0  0  0  0  0  0  0  0
  -11.4624    8.1669    0.0000 C   0  0  0  0  0  0  0  0  0  0  0  0
  -12.7289    8.9705    0.0000 O   0  0  0  0  0  0  0  0  0  0  0  0
  -12.2999    6.9225    0.0000 N   0  0  0  0  0  0  0  0  0  0  0  0
  -12.8868    5.5421    0.0000 C   0  0  0  0  0  0  0  0  0  0  0  0
  -14.3407    5.1731    0.0000 C   0  0  0  0  0  0  0  0  0  0  0  0
  -13.2019    4.0755    0.0000 C   0  0  0  0  0  0  0  0  0  0  0  0
  -14.7018    4.0668    0.0000 O   0  0  0  0  0  0  0  0  0  0  0  0
  -13.2337    2.5759    0.0000 N   0  0  0  0  0  0  0  0  0  0  0  0
  -12.9811    1.0973    0.0000 C   0  0  0  0  0  0  0  0  0  0  0  0
  -14.0047    0.0008    0.0000 C   0  0  0  0  0  0  0  0  0  0  0  0
  -15.4661    0.3391    0.0000 C   0  0  0  0  0  0  0  0  0  0  0  0
  -16.4897   -0.7573    0.0000 C   0  0  0  0  0  0  0  0  0  0  0  0
  -16.7236    1.1568    0.0000 C   0  0  0  0  0  0  0  0  0  0  0  0
  -12.4533   -0.3068    0.0000 C   0  0  0  0  0  0  0  0  0  0  0  0
  -13.7104   -1.1250    0.0000 O   0  0  0  0  0  0  0  0  0  0  0  0
  -11.6692   -1.5856    0.0000 N   0  0  0  0  0  0  0  0  0  0  0  0
  -10.6574   -2.6929    0.0000 C   0  0  0  0  0  0  0  0  0  0  0  0
   -9.4542   -3.5887    0.0000 C   0  0  0  0  0  0  0  0  0  0  0  0
   -8.1033   -4.2406    0.0000 C   0  0  0  0  0  0  0  0  0  0  0  0
   -6.6534   -4.6251    0.0000 C   0  0  0  0  0  0  0  0  0  0  0  0
   -5.1570   -4.7282    0.0000 C   0  0  0  0  0  0  0  0  0  0  0  0
  -12.0988   -3.1078    0.0000 C   0  0  0  0  0  0  0  0  0  0  0  0
  -10.9257   -4.1687    0.0000 C   0  0  0  0  0  0  0  0  0  0  0  0
  -10.0506   -5.3869    0.0000 O   0  0  0  0  0  0  0  0  0  0  0  0
  -12.3380   -4.6742    0.0000 N   0  0  0  0  0  0  0  0  0  0  0  0
  -12.6063   -6.1500    0.0000 C   0  0  0  0  0  0  0  0  0  0  0  0
  -12.3538   -7.6286    0.0000 C   0  0  0  0  0  0  0  0  0  0  0  0
  -13.5080   -8.5866    0.0000 C   0  0  0  0  0  0  0  0  0  0  0  0
  -13.2554  -10.0652    0.0000 O   0  0  0  0  0  0  0  0  0  0  0  0
  -14.9989   -8.4219    0.0000 O   0  0  0  0  0  0  0  0  0  0  0  0
  -14.0186   -6.6555    0.0000 C   0  0  0  0  0  0  0  0  0  0  0  0
  -15.1625   -5.6852    0.0000 O   0  0  0  0  0  0  0  0  0  0  0  0
  -14.2870   -8.1313    0.0000 N   0  0  0  0  0  0  0  0  0  0  0  0
  -15.6992   -8.6368    0.0000 C   0  0  0  0  0  0  0  0  0  0  0  0
  -17.1992   -8.6288    0.0000 C   0  0  0  0  0  0  0  0  0  0  0  0
  -17.9561   -9.9238    0.0000 C   0  0  0  0  0  0  0  0  0  0  0  0
  -19.4561   -9.9158    0.0000 C   0  0  0  0  0  0  0  0  0  0  0  0
  -20.3652  -11.1089    0.0000 N   0  0  0  0  0  0  0  0  0  0  0  0
  -20.1992   -8.6127    0.0000 O   0  0  0  0  0  0  0  0  0  0  0  0
  -15.9676  -10.1126    0.0000 C   0  0  0  0  0  0  0  0  0  0  0  0
  -14.8237  -11.0829    0.0000 O   0  0  0  0  0  0  0  0  0  0  0  0
  -17.3798  -10.6181    0.0000 N   0  0  0  0  0  0  0  0  0  0  0  0
  -17.6482  -12.0939    0.0000 C   0  0  0  0  0  0  0  0  0  0  0  0
  -17.3956  -13.5724    0.0000 C   0  0  0  0  0  0  0  0  0  0  0  0
  -18.5498  -14.5305    0.0000 C   0  0  0  0  0  0  0  0  0  0  0  0
  -16.6526  -14.8755    0.0000 C   0  0  0  0  0  0  0  0  0  0  0  0
  -15.1526  -14.8835    0.0000 C   0  0  0  0  0  0  0  0  0  0  0  0
  -19.0605  -12.5994    0.0000 C   0  0  0  0  0  0  0  0  0  0  0  0
  -19.5067  -14.0314    0.0000 O   0  0  0  0  0  0  0  0  0  0  0  0
  -20.3141  -11.7757    0.0000 O   0  0  0  0  0  0  0  0  0  0  0  0
   21.2155   -1.3231    0.0000 H   0  0  0  0  0  0  0  0  0  0  0  0
   21.1606   -5.8153    0.0000 H   0  0  0  0  0  0  0  0  0  0  0  0
   23.6757   -7.4507    0.0000 H   0  0  0  0  0  0  0  0  0  0  0  0
   23.6283   -1.4844    0.0000 H   0  0  0  0  0  0  0  0  0  0  0  0
   30.6605   -0.1196    0.0000 H   0  0  0  0  0  0  0  0  0  0  0  0
   31.4704   -5.2523    0.0000 H   0  0  0  0  0  0  0  0  0  0  0  0
   28.5070   -5.7198    0.0000 H   0  0  0  0  0  0  0  0  0  0  0  0
   33.4904   -3.6184    0.0000 H   0  0  0  0  0  0  0  0  0  0  0  0
   23.6571   -3.8549    0.0000 H   0  0  0  0  0  0  0  0  0  0  0  0
   21.7530   -1.3400    0.0000 H   0  0  0  0  0  0  0  0  0  0  0  0
   25.8105    1.7453    0.0000 H   0  0  0  0  0  0  0  0  0  0  0  0
   23.3856    2.6778    0.0000 H   0  0  0  0  0  0  0  0  0  0  0  0
   18.8043   -1.1842    0.0000 H   0  0  0  0  0  0  0  0  0  0  0  0
   18.2900   -4.5607    0.0000 H   0  0  0  0  0  0  0  0  0  0  0  0
   16.5057   -4.5753    0.0000 H   0  0  0  0  0  0  0  0  0  0  0  0
   17.1541   -1.4481    0.0000 H   0  0  0  0  0  0  0  0  0  0  0  0
   15.2284   -1.3461    0.0000 H   0  0  0  0  0  0  0  0  0  0  0  0
   13.6154   -0.9092    0.0000 H   0  0  0  0  0  0  0  0  0  0  0  0
   11.7614   -1.6526    0.0000 H   0  0  0  0  0  0  0  0  0  0  0  0
   13.5389   -5.7205    0.0000 H   0  0  0  0  0  0  0  0  0  0  0  0
   11.8571   -5.1239    0.0000 H   0  0  0  0  0  0  0  0  0  0  0  0
   16.9921   -5.3032    0.0000 H   0  0  0  0  0  0  0  0  0  0  0  0
   14.9052   -6.6827    0.0000 H   0  0  0  0  0  0  0  0  0  0  0  0
   10.3951   -0.6904    0.0000 H   0  0  0  0  0  0  0  0  0  0  0  0
    8.5806   -0.7757    0.0000 H   0  0  0  0  0  0  0  0  0  0  0  0
    8.6776   -5.1853    0.0000 H   0  0  0  0  0  0  0  0  0  0  0  0
    7.3563   -4.2242    0.0000 H   0  0  0  0  0  0  0  0  0  0  0  0
   11.7073   -3.8438    0.0000 H   0  0  0  0  0  0  0  0  0  0  0  0
   10.6578   -2.5915    0.0000 H   0  0  0  0  0  0  0  0  0  0  0  0
   12.5552   -7.2334    0.0000 H   0  0  0  0  0  0  0  0  0  0  0  0
   13.4169   -5.0004    0.0000 H   0  0  0  0  0  0  0  0  0  0  0  0
    7.4438    0.6167    0.0000 H   0  0  0  0  0  0  0  0  0  0  0  0
    5.5457    1.2390    0.0000 H   0  0  0  0  0  0  0  0  0  0  0  0
    4.1287   -2.9379    0.0000 H   0  0  0  0  0  0  0  0  0  0  0  0
    3.4181   -1.3011    0.0000 H   0  0  0  0  0  0  0  0  0  0  0  0
    7.0405   -1.2597    0.0000 H   0  0  0  0  0  0  0  0  0  0  0  0
    7.0799   -5.0526    0.0000 H   0  0  0  0  0  0  0  0  0  0  0  0
    5.4707   -5.3354    0.0000 H   0  0  0  0  0  0  0  0  0  0  0  0
    4.5659   -3.7973    0.0000 H   0  0  0  0  0  0  0  0  0  0  0  0
    8.0361   -4.2300    0.0000 H   0  0  0  0  0  0  0  0  0  0  0  0
    9.0870   -2.9791    0.0000 H   0  0  0  0  0  0  0  0  0  0  0  0
    7.4945   -1.2989    0.0000 H   0  0  0  0  0  0  0  0  0  0  0  0
    5.1905    2.6863    0.0000 H   0  0  0  0  0  0  0  0  0  0  0  0
    3.8415    1.6507    0.0000 H   0  0  0  0  0  0  0  0  0  0  0  0
    3.2940    0.3372    0.0000 H   0  0  0  0  0  0  0  0  0  0  0  0
    3.3619   -0.2455    0.0000 H   0  0  0  0  0  0  0  0  0  0  0  0
    2.7594   -1.1545    0.0000 H   0  0  0  0  0  0  0  0  0  0  0  0
    2.6794   -1.3020    0.0000 H   0  0  0  0  0  0  0  0  0  0  0  0
    1.9584   -2.5288    0.0000 H   0  0  0  0  0  0  0  0  0  0  0  0
    1.6376   -2.9194    0.0000 H   0  0  0  0  0  0  0  0  0  0  0  0
    0.7496   -3.8121    0.0000 H   0  0  0  0  0  0  0  0  0  0  0  0
    0.3607   -4.1348    0.0000 H   0  0  0  0  0  0  0  0  0  0  0  0
   -0.6802   -4.8433    0.0000 H   0  0  0  0  0  0  0  0  0  0  0  0
   -1.1232   -5.0867    0.0000 H   0  0  0  0  0  0  0  0  0  0  0  0
   -2.4619   -5.5694    0.0000 H   0  0  0  0  0  0  0  0  0  0  0  0
   -3.3454   -6.0111    0.0000 H   0  0  0  0  0  0  0  0  0  0  0  0
    5.2011    3.1840    0.0000 H   0  0  0  0  0  0  0  0  0  0  0  0
    4.9004    4.7899    0.0000 H   0  0  0  0  0  0  0  0  0  0  0  0
    3.1426    5.0967    0.0000 H   0  0  0  0  0  0  0  0  0  0  0  0
    3.4782    6.2884    0.0000 H   0  0  0  0  0  0  0  0  0  0  0  0
    2.8492    7.0923    0.0000 H   0  0  0  0  0  0  0  0  0  0  0  0
    2.2088   10.1134    0.0000 H   0  0  0  0  0  0  0  0  0  0  0  0
    0.7445    9.3887    0.0000 H   0  0  0  0  0  0  0  0  0  0  0  0
    4.9690    8.2804    0.0000 H   0  0  0  0  0  0  0  0  0  0  0  0
    3.7235    7.2230    0.0000 H   0  0  0  0  0  0  0  0  0  0  0  0
    4.3796   11.5409    0.0000 H   0  0  0  0  0  0  0  0  0  0  0  0
    2.8315   10.6533    0.0000 H   0  0  0  0  0  0  0  0  0  0  0  0
    6.5270    8.8850    0.0000 H   0  0  0  0  0  0  0  0  0  0  0  0
    8.5468   12.9062    0.0000 H   0  0  0  0  0  0  0  0  0  0  0  0
    8.6977   10.3125    0.0000 H   0  0  0  0  0  0  0  0  0  0  0  0
    6.2251   14.0723    0.0000 H   0  0  0  0  0  0  0  0  0  0  0  0
    4.0544   12.6448    0.0000 H   0  0  0  0  0  0  0  0  0  0  0  0
    0.2426   10.6909    0.0000 H   0  0  0  0  0  0  0  0  0  0  0  0
   -0.6699   11.0693    0.0000 H   0  0  0  0  0  0  0  0  0  0  0  0
   -2.5841   13.1745    0.0000 H   0  0  0  0  0  0  0  0  0  0  0  0
   -3.5934   11.7029    0.0000 H   0  0  0  0  0  0  0  0  0  0  0  0
   -1.0400   14.1312    0.0000 H   0  0  0  0  0  0  0  0  0  0  0  0
   -4.5380   12.5033    0.0000 H   0  0  0  0  0  0  0  0  0  0  0  0
   -5.6918   12.3521    0.0000 H   0  0  0  0  0  0  0  0  0  0  0  0
   -8.4403   13.0882    0.0000 H   0  0  0  0  0  0  0  0  0  0  0  0
   -8.4938   11.3045    0.0000 H   0  0  0  0  0  0  0  0  0  0  0  0
   -4.1615   12.7416    0.0000 H   0  0  0  0  0  0  0  0  0  0  0  0
   -3.2114   15.4151    0.0000 H   0  0  0  0  0  0  0  0  0  0  0  0
   -5.0906   17.7536    0.0000 H   0  0  0  0  0  0  0  0  0  0  0  0
   -8.0554   17.2954    0.0000 H   0  0  0  0  0  0  0  0  0  0  0  0
   -9.1410   14.4987    0.0000 H   0  0  0  0  0  0  0  0  0  0  0  0
   -9.7211   11.4672    0.0000 H   0  0  0  0  0  0  0  0  0  0  0  0
  -10.6100   10.7161    0.0000 H   0  0  0  0  0  0  0  0  0  0  0  0
  -13.3202    9.8494    0.0000 H   0  0  0  0  0  0  0  0  0  0  0  0
  -12.4009    8.3200    0.0000 H   0  0  0  0  0  0  0  0  0  0  0  0
   -9.5333   11.8712    0.0000 H   0  0  0  0  0  0  0  0  0  0  0  0
  -10.1794   14.6339    0.0000 H   0  0  0  0  0  0  0  0  0  0  0  0
  -13.0245   15.5852    0.0000 H   0  0  0  0  0  0  0  0  0  0  0  0
  -15.2710   13.5969    0.0000 H   0  0  0  0  0  0  0  0  0  0  0  0
  -14.6722   10.6572    0.0000 H   0  0  0  0  0  0  0  0  0  0  0  0
  -13.6183    7.6379    0.0000 H   0  0  0  0  0  0  0  0  0  0  0  0
  -13.8630    6.6809    0.0000 H   0  0  0  0  0  0  0  0  0  0  0  0
  -15.3872    6.2477    0.0000 H   0  0  0  0  0  0  0  0  0  0  0  0
  -15.6744    4.4866    0.0000 H   0  0  0  0  0  0  0  0  0  0  0  0
  -14.0742    3.6970    0.0000 H   0  0  0  0  0  0  0  0  0  0  0  0
  -14.7319    2.6481    0.0000 H   0  0  0  0  0  0  0  0  0  0  0  0
  -14.3549    1.6995    0.0000 H   0  0  0  0  0  0  0  0  0  0  0  0
  -14.5916   -1.3796    0.0000 H   0  0  0  0  0  0  0  0  0  0  0  0
  -12.9824   -1.0968    0.0000 H   0  0  0  0  0  0  0  0  0  0  0  0
  -15.2307    1.8205    0.0000 H   0  0  0  0  0  0  0  0  0  0  0  0
  -17.9814   -0.5997    0.0000 H   0  0  0  0  0  0  0  0  0  0  0  0
  -17.0766   -2.1377    0.0000 H   0  0  0  0  0  0  0  0  0  0  0  0
  -15.3412   -1.7222    0.0000 H   0  0  0  0  0  0  0  0  0  0  0  0
  -18.1335    0.6446    0.0000 H   0  0  0  0  0  0  0  0  0  0  0  0
  -17.6257    2.3553    0.0000 H   0  0  0  0  0  0  0  0  0  0  0  0
  -15.7000    2.2532    0.0000 H   0  0  0  0  0  0  0  0  0  0  0  0
  -12.9687   -2.3348    0.0000 H   0  0  0  0  0  0  0  0  0  0  0  0
   -9.4384   -5.0886    0.0000 H   0  0  0  0  0  0  0  0  0  0  0  0
  -10.5868   -4.5722    0.0000 H   0  0  0  0  0  0  0  0  0  0  0  0
   -7.9853   -5.7360    0.0000 H   0  0  0  0  0  0  0  0  0  0  0  0
   -9.0293   -5.4207    0.0000 H   0  0  0  0  0  0  0  0  0  0  0  0
   -6.0813   -6.0117    0.0000 H   0  0  0  0  0  0  0  0  0  0  0  0
   -7.4968   -5.8655    0.0000 H   0  0  0  0  0  0  0  0  0  0  0  0
   -5.1174   -6.2277    0.0000 H   0  0  0  0  0  0  0  0  0  0  0  0
  -12.8018   -4.4329    0.0000 H   0  0  0  0  0  0  0  0  0  0  0  0
  -13.5953   -3.0047    0.0000 H   0  0  0  0  0  0  0  0  0  0  0  0
  -12.6134   -1.6988    0.0000 H   0  0  0  0  0  0  0  0  0  0  0  0
  -13.5916   -3.8505    0.0000 H   0  0  0  0  0  0  0  0  0  0  0  0
  -11.1064   -6.1580    0.0000 H   0  0  0  0  0  0  0  0  0  0  0  0
  -11.6107   -8.9316    0.0000 H   0  0  0  0  0  0  0  0  0  0  0  0
  -10.9415   -7.1231    0.0000 H   0  0  0  0  0  0  0  0  0  0  0  0
  -13.4118   -9.3495    0.0000 H   0  0  0  0  0  0  0  0  0  0  0  0
  -15.9518   -7.1582    0.0000 H   0  0  0  0  0  0  0  0  0  0  0  0
  -18.6060   -8.1082    0.0000 H   0  0  0  0  0  0  0  0  0  0  0  0
  -16.9308   -7.1530    0.0000 H   0  0  0  0  0  0  0  0  0  0  0  0
  -18.2245  -11.3996    0.0000 H   0  0  0  0  0  0  0  0  0  0  0  0
  -16.9585  -11.0439    0.0000 H   0  0  0  0  0  0  0  0  0  0  0  0
  -21.7130  -11.2028    0.0000 H   0  0  0  0  0  0  0  0  0  0  0  0
  -20.0331  -12.7413    0.0000 H   0  0  0  0  0  0  0  0  0  0  0  0
  -18.7245   -9.9534    0.0000 H   0  0  0  0  0  0  0  0  0  0  0  0
  -16.1482  -12.1019    0.0000 H   0  0  0  0  0  0  0  0  0  0  0  0
  -16.0555  -12.8986    0.0000 H   0  0  0  0  0  0  0  0  0  0  0  0
  -18.4793  -16.0288    0.0000 H   0  0  0  0  0  0  0  0  0  0  0  0
  -19.9621  -15.0360    0.0000 H   0  0  0  0  0  0  0  0  0  0  0  0
  -19.8177  -13.7290    0.0000 H   0  0  0  0  0  0  0  0  0  0  0  0
  -16.4000  -16.3541    0.0000 H   0  0  0  0  0  0  0  0  0  0  0  0
  -17.9927  -15.5493    0.0000 H   0  0  0  0  0  0  0  0  0  0  0  0
  -14.4095  -16.1865    0.0000 H   0  0  0  0  0  0  0  0  0  0  0  0
  -13.7403  -14.3780    0.0000 H   0  0  0  0  0  0  0  0  0  0  0  0
  -15.2230  -13.3851    0.0000 H   0  0  0  0  0  0  0  0  0  0  0  0
  1  2  1  0
  2  3  1  0
  3  4  2  0
  4  5  1  0
  5  6  2  0
  6  7  1  0
  7  8  2  0
  7  9  1  0
  9 10  1  0
 10 11  1  0
 11 12  2  0
  9 13  1  0
 13 14  1  0
 14 15  2  0
 15 16  1  0
 16 17  2  0
 17 18  1  0
 16 19  1  0
 14 20  1  0
 20 21  1  0
 21 22  2  0
 22 23  1  0
 23 24  2  0
 24 25  1  0
 25 26  2  0
 25 27  1  0
  1 28  2  0
  1 29  1  0
 29 30  1  0
 30 31  1  0
 31 32  1  0
 32 33  2  0
 32 34  1  0
 34 35  1  0
 35 36  1  0
 36 37  1  0
 37 38  1  0
 37 39  2  0
 35 40  1  0
 40 41  2  0
 40 42  1  0
 42 43  1  0
 43 44  1  0
 44 45  1  0
 45 46  1  0
 46 47  1  0
 46 48  2  0
 43 49  1  0
 49 50  2  0
 49 51  1  0
 51 52  1  0
 52 53  1  0
 53 54  1  0
 54 55  1  0
 54 56  1  0
 52 57  1  0
 57 58  2  0
 57 59  1  0
 60 59  1  6
 60 61  1  0
 61 62  1  0
 62 63  1  0
 63 64  1  0
 64 65  1  0
 65 66  1  0
 66 67  1  0
 60 68  1  0
 60 69  1  0
 69 70  2  0
 69 71  1  0
 71 72  1  0
 72 73  1  0
 73 74  1  0
 74 75  1  0
 75 76  1  0
 76 77  1  0
 77 78  2  3
 77 79  1  0
 72 80  1  0
 80 81  2  0
 80 82  1  0
 82 83  1  0
 83 84  1  0
 84 85  1  0
 83 86  1  0
 86 87  2  0
 86 88  1  0
 88 89  1  0
 89 90  1  0
 90 91  1  0
 91 92  2  0
 92 93  1  0
 93 94  2  0
 94 95  1  0
 95 96  2  0
 89 97  1  0
 97 98  2  0
 97 99  1  0
 99100  1  0
100101  1  0
101102  1  0
102103  2  0
103104  1  0
104105  2  0
105106  1  0
106107  2  0
100108  1  0
108109  2  0
108110  1  0
110111  1  0
111112  1  0
111113  1  0
113114  2  0
113115  1  0
115116  1  0
116117  1  0
117118  1  0
118119  1  0
118120  1  0
116121  1  0
121122  2  0
121123  1  0
123124  1  0
124125  1  0
125126  1  0
126127  1  0
127128  1  0
124129  1  0
124130  1  1
130131  2  0
130132  1  0
132133  1  0
133134  1  0
134135  1  0
135136  2  0
135137  1  0
133138  1  0
138139  2  0
138140  1  0
140141  1  0
141142  1  0
142143  1  0
143144  1  0
144145  1  0
144146  2  0
141147  1  0
147148  2  0
147149  1  0
149150  1  0
150151  1  0
151152  1  0
151153  1  0
153154  1  0
150155  1  0
155156  2  0
155157  1  0
  8  3  1  0
 96 91  1  0
107102  1  0
 11  6  1  0
 18 13  2  0
 67128  2  0
 22  9  1  0
 26 21  1  0
  2158  1  0
  4159  1  0
  5160  1  0
  8161  1  0
 15162  1  0
 17163  1  0
 18164  1  0
 19165  1  0
 23166  1  0
 24167  1  0
 26168  1  0
 27169  1  0
 29170  1  0
 30171  1  0
 30172  1  0
 31173  1  0
 31174  1  0
 34175  1  0
 35176  1  1
 36177  1  0
 36178  1  0
 38179  1  0
 38180  1  0
 42181  1  0
 43182  1  1
 44183  1  0
 44184  1  0
 45185  1  0
 45186  1  0
 47187  1  0
 47188  1  0
 51189  1  0
 52190  1  1
 53191  1  0
 53192  1  0
 54193  1  0
 55194  1  0
 55195  1  0
 55196  1  0
 56197  1  0
 56198  1  0
 56199  1  0
 59200  1  0
 61201  1  0
 61202  1  0
 62203  1  0
 62204  1  0
 63205  1  0
 63206  1  0
 64207  1  0
 64208  1  0
 65209  1  0
 65210  1  0
 66211  1  0
 66212  1  0
 67213  1  0
 68214  1  0
 68215  1  0
 68216  1  0
 71217  1  0
 72218  1  6
 73219  1  0
 73220  1  0
 74221  1  0
 74222  1  0
 75223  1  0
 75224  1  0
 76225  1  0
 78226  1  0
 78227  1  0
 79228  1  0
 79229  1  0
 82230  1  0
 83231  1  6
 84232  1  0
 84233  1  0
 85234  1  0
 88235  1  0
 89236  1  6
 90237  1  0
 90238  1  0
 92239  1  0
 93240  1  0
 94241  1  0
 95242  1  0
 96243  1  0
 99244  1  0
100245  1  6
101246  1  0
101247  1  0
103248  1  0
104249  1  0
105250  1  0
106251  1  0
107252  1  0
110253  1  0
111254  1  6
112255  1  0
112256  1  0
112257  1  0
115258  1  0
116259  1  6
117260  1  0
117261  1  0
118262  1  0
119263  1  0
119264  1  0
119265  1  0
120266  1  0
120267  1  0
120268  1  0
123269  1  0
125270  1  0
125271  1  0
126272  1  0
126273  1  0
127274  1  0
127275  1  0
128276  1  0
129277  1  0
129278  1  0
129279  1  0
132280  1  0
133281  1  1
134282  1  0
134283  1  0
140284  1  0
141285  1  6
142286  1  0
142287  1  0
143288  1  0
143289  1  0
145290  1  0
145291  1  0
149292  1  0
150293  1  1
151294  1  1
152295  1  0
152296  1  0
152297  1  0
153298  1  0
153299  1  0
154300  1  0
154301  1  0
154302  1  0
M  CHG  3  78   1 137  -1 157  -1
M  END
