
     RDKit          2D

327335  0  0  0  0  0  0  0  0999 V2000
   15.3914   -3.8904    0.0000 C   0  0  0  0  0  0  0  0  0  0  0  0
   16.6638   -4.6849    0.0000 N   0  0  0  0  0  0  0  0  0  0  0  0
   16.6119   -6.1840    0.0000 C   0  0  0  0  0  0  0  0  0  0  0  0
   15.2877   -6.8886    0.0000 C   0  0  0  0  0  0  0  0  0  0  0  0
   15.2358   -8.3877    0.0000 C   0  0  0  0  0  0  0  0  0  0  0  0
   16.5081   -9.1822    0.0000 C   0  0  0  0  0  0  0  0  0  0  0  0
   17.8323   -8.4776    0.0000 C   0  0  0  0  0  0  0  0  0  0  0  0
   17.8842   -6.9785    0.0000 C   0  0  0  0  0  0  0  0  0  0  0  0
   18.9117   -9.5192    0.0000 C   0  0  0  0  0  0  0  0  0  0  0  0
   18.2545  -10.8676    0.0000 O   0  0  0  0  0  0  0  0  0  0  0  0
   16.7691  -10.6593    0.0000 C   0  0  0  0  0  0  0  0  0  0  0  0
   15.7274  -11.7387    0.0000 O   0  0  0  0  0  0  0  0  0  0  0  0
   19.8762  -10.6680    0.0000 C   0  0  0  0  0  0  0  0  0  0  0  0
   21.3534  -10.4070    0.0000 C   0  0  0  0  0  0  0  0  0  0  0  0
   22.3179  -11.5558    0.0000 C   0  0  0  0  0  0  0  0  0  0  0  0
   21.8053  -12.9655    0.0000 C   0  0  0  0  0  0  0  0  0  0  0  0
   20.3282  -13.2264    0.0000 C   0  0  0  0  0  0  0  0  0  0  0  0
   19.3636  -12.0777    0.0000 C   0  0  0  0  0  0  0  0  0  0  0  0
   22.7699  -14.1143    0.0000 O   0  0  0  0  0  0  0  0  0  0  0  0
   21.8659   -8.9973    0.0000 O   0  0  0  0  0  0  0  0  0  0  0  0
   20.9014   -7.8486    0.0000 C   0  0  0  0  0  0  0  0  0  0  0  0
   19.4243   -8.1095    0.0000 C   0  0  0  0  0  0  0  0  0  0  0  0
   19.1490   -6.8390    0.0000 C   0  0  0  0  0  0  0  0  0  0  0  0
   19.4224   -6.0871    0.0000 C   0  0  0  0  0  0  0  0  0  0  0  0
   20.2102   -5.9480    0.0000 C   0  0  0  0  0  0  0  0  0  0  0  0
   20.7247   -6.5607    0.0000 C   0  0  0  0  0  0  0  0  0  0  0  0
   20.9620   -3.8804    0.0000 O   0  0  0  0  0  0  0  0  0  0  0  0
   14.0672   -4.5950    0.0000 S   0  0  0  0  0  0  0  0  0  0  0  0
   15.4433   -2.3913    0.0000 N   0  0  0  0  0  0  0  0  0  0  0  0
   14.1710   -1.5968    0.0000 C   0  0  0  0  0  0  0  0  0  0  0  0
   14.2229   -0.0977    0.0000 C   0  0  0  0  0  0  0  0  0  0  0  0
   12.9506    0.6968    0.0000 C   0  0  0  0  0  0  0  0  0  0  0  0
   11.9669   -0.4357    0.0000 O   0  0  0  0  0  0  0  0  0  0  0  0
   13.0024    2.1959    0.0000 N   0  0  0  0  0  0  0  0  0  0  0  0
   11.7301    2.9903    0.0000 C   0  0  0  0  0  0  0  0  0  0  0  0
   11.5292    1.5038    0.0000 C   0  0  0  0  0  0  0  0  0  0  0  0
   10.8991    0.1426    0.0000 C   0  0  0  0  0  0  0  0  0  0  0  0
    9.8958   -0.9724    0.0000 C   0  0  0  0  0  0  0  0  0  0  0  0
    8.6083   -1.7422    0.0000 C   0  0  0  0  0  0  0  0  0  0  0  0
   12.9776    3.8233    0.0000 C   0  0  0  0  0  0  0  0  0  0  0  0
   11.4839    4.4700    0.0000 C   0  0  0  0  0  0  0  0  0  0  0  0
   12.9104    4.9340    0.0000 O   0  0  0  0  0  0  0  0  0  0  0  0
   10.8125    5.8113    0.0000 N   0  0  0  0  0  0  0  0  0  0  0  0
    9.7756    6.8952    0.0000 C   0  0  0  0  0  0  0  0  0  0  0  0
    9.9021    8.3899    0.0000 C   0  0  0  0  0  0  0  0  0  0  0  0
   11.2598    9.0276    0.0000 C   0  0  0  0  0  0  0  0  0  0  0  0
   11.3863   10.5223    0.0000 C   0  0  0  0  0  0  0  0  0  0  0  0
   12.7440   11.1600    0.0000 N   0  0  0  0  0  0  0  0  0  0  0  0
   12.8706   12.6547    0.0000 C   0  0  0  0  0  0  0  0  0  0  0  0
   14.2282   13.2924    0.0000 N   0  0  0  0  0  0  0  0  0  0  0  0
   11.6394   13.5116    0.0000 N   0  0  0  0  0  0  0  0  0  0  0  0
    8.4652    7.6253    0.0000 C   0  0  0  0  0  0  0  0  0  0  0  0
    8.9919    9.0298    0.0000 O   0  0  0  0  0  0  0  0  0  0  0  0
    6.9979    7.9367    0.0000 N   0  0  0  0  0  0  0  0  0  0  0  0
    5.5040    7.8018    0.0000 C   0  0  0  0  0  0  0  0  0  0  0  0
    4.4143    8.8326    0.0000 C   0  0  0  0  0  0  0  0  0  0  0  0
    4.7622   10.2917    0.0000 C   0  0  0  0  0  0  0  0  0  0  0  0
    3.6726   11.3225    0.0000 C   0  0  0  0  0  0  0  0  0  0  0  0
    4.0204   12.7816    0.0000 N   0  0  0  0  0  0  0  0  0  0  0  0
    2.9308   13.8124    0.0000 C   0  0  0  0  0  0  0  0  0  0  0  0
    3.2787   15.2715    0.0000 N   0  0  0  0  0  0  0  0  0  0  0  0
    1.4932   13.3842    0.0000 N   0  0  0  0  0  0  0  0  0  0  0  0
    4.1162    7.2325    0.0000 C   0  0  0  0  0  0  0  0  0  0  0  0
    3.3465    8.5199    0.0000 O   0  0  0  0  0  0  0  0  0  0  0  0
    2.9579    6.2794    0.0000 N   0  0  0  0  0  0  0  0  0  0  0  0
    2.1320    5.0273    0.0000 C   0  0  0  0  0  0  0  0  0  0  0  0
    0.6466    4.8181    0.0000 C   0  0  0  0  0  0  0  0  0  0  0  0
   -0.2772    5.9998    0.0000 C   0  0  0  0  0  0  0  0  0  0  0  0
   -1.7389    6.3369    0.0000 N   0  0  0  0  0  0  0  0  0  0  0  0
    0.4496    7.3120    0.0000 O   0  0  0  0  0  0  0  0  0  0  0  0
    1.7118    3.5874    0.0000 C   0  0  0  0  0  0  0  0  0  0  0  0
    0.9349    4.0127    0.0000 O   0  0  0  0  0  0  0  0  0  0  0  0
    1.7347    2.0875    0.0000 N   0  0  0  0  0  0  0  0  0  0  0  0
    2.1987    0.6611    0.0000 C   0  0  0  0  0  0  0  0  0  0  0  0
    3.0625   -0.5652    0.0000 C   0  0  0  0  0  0  0  0  0  0  0  0
    4.2494   -1.4824    0.0000 C   0  0  0  0  0  0  0  0  0  0  0  0
    5.6539   -2.0090    0.0000 C   0  0  0  0  0  0  0  0  0  0  0  0
    7.1512   -2.0983    0.0000 C   0  0  0  0  0  0  0  0  0  0  0  0
    2.0656   -0.9272    0.0000 C   0  0  0  0  0  0  0  0  0  0  0  0
    2.3082   -2.2724    0.0000 C   0  0  0  0  0  0  0  0  0  0  0  0
    2.2919   -3.6392    0.0000 C   0  0  0  0  0  0  0  0  0  0  0  0
    2.0172   -4.9783    0.0000 C   0  0  0  0  0  0  0  0  0  0  0  0
    0.8474    1.5065    0.0000 C   0  0  0  0  0  0  0  0  0  0  0  0
    2.5929    2.8457    0.0000 O   0  0  0  0  0  0  0  0  0  0  0  0
   -0.0840    2.5069    0.0000 N   0  0  0  0  0  0  0  0  0  0  0  0
   -1.1879    3.3130    0.0000 C   0  0  0  0  0  0  0  0  0  0  0  0
   -0.8604    5.4147    0.0000 C   0  0  0  0  0  0  0  0  0  0  0  0
   -2.1741    6.1389    0.0000 C   0  0  0  0  0  0  0  0  0  0  0  0
   -2.2038    7.6386    0.0000 C   0  0  0  0  0  0  0  0  0  0  0  0
   -3.5174    8.3627    0.0000 N   0  0  0  0  0  0  0  0  0  0  0  0
   -3.5471    9.8624    0.0000 C   0  0  0  0  0  0  0  0  0  0  0  0
   -4.6465   10.8829    0.0000 N   0  0  0  0  0  0  0  0  0  0  0  0
   -2.2632   10.6380    0.0000 N   0  0  0  0  0  0  0  0  0  0  0  0
   -2.4244    3.8957    0.0000 C   0  0  0  0  0  0  0  0  0  0  0  0
   -2.2198    6.0540    0.0000 O   0  0  0  0  0  0  0  0  0  0  0  0
   -3.7489    4.2337    0.0000 N   0  0  0  0  0  0  0  0  0  0  0  0
   -5.1134    4.3151    0.0000 C   0  0  0  0  0  0  0  0  0  0  0  0
   -5.9742    6.2602    0.0000 C   0  0  0  0  0  0  0  0  0  0  0  0
   -5.3134    7.6068    0.0000 C   0  0  0  0  0  0  0  0  0  0  0  0
   -6.1492    8.8524    0.0000 C   0  0  0  0  0  0  0  0  0  0  0  0
   -5.4884   10.1990    0.0000 N   0  0  0  0  0  0  0  0  0  0  0  0
   -6.3242   11.4445    0.0000 C   0  0  0  0  0  0  0  0  0  0  0  0
   -5.6634   12.7911    0.0000 N   0  0  0  0  0  0  0  0  0  0  0  0
   -7.8208   11.3435    0.0000 N   0  0  0  0  0  0  0  0  0  0  0  0
   -6.4686    4.1367    0.0000 C   0  0  0  0  0  0  0  0  0  0  0  0
   -7.1375    6.2288    0.0000 O   0  0  0  0  0  0  0  0  0  0  0  0
   -7.7656    3.7050    0.0000 N   0  0  0  0  0  0  0  0  0  0  0  0
   -8.9575    3.0357    0.0000 C   0  0  0  0  0  0  0  0  0  0  0  0
  -10.7332    4.2067    0.0000 C   0  0  0  0  0  0  0  0  0  0  0  0
  -10.9053    5.6968    0.0000 C   0  0  0  0  0  0  0  0  0  0  0  0
  -12.2819    6.2928    0.0000 C   0  0  0  0  0  0  0  0  0  0  0  0
  -12.4540    7.7829    0.0000 N   0  0  0  0  0  0  0  0  0  0  0  0
  -13.8305    8.3788    0.0000 C   0  0  0  0  0  0  0  0  0  0  0  0
  -14.0026    9.8689    0.0000 N   0  0  0  0  0  0  0  0  0  0  0  0
  -15.0349    7.4847    0.0000 N   0  0  0  0  0  0  0  0  0  0  0  0
  -10.0011    2.1530    0.0000 C   0  0  0  0  0  0  0  0  0  0  0  0
  -11.6949    3.5514    0.0000 O   0  0  0  0  0  0  0  0  0  0  0  0
  -10.8588    1.0887    0.0000 N   0  0  0  0  0  0  0  0  0  0  0  0
  -11.4996   -0.1188    0.0000 C   0  0  0  0  0  0  0  0  0  0  0  0
  -13.6266   -0.0937    0.0000 C   0  0  0  0  0  0  0  0  0  0  0  0
  -14.5770    1.0668    0.0000 C   0  0  0  0  0  0  0  0  0  0  0  0
  -14.1968    2.5178    0.0000 C   0  0  0  0  0  0  0  0  0  0  0  0
  -15.4593    3.3278    0.0000 N   0  0  0  0  0  0  0  0  0  0  0  0
  -16.6198    2.3774    0.0000 C   0  0  0  0  0  0  0  0  0  0  0  0
  -18.1026    2.6038    0.0000 C   0  0  0  0  0  0  0  0  0  0  0  0
  -19.0401    1.4329    0.0000 C   0  0  0  0  0  0  0  0  0  0  0  0
  -18.4948    0.0355    0.0000 C   0  0  0  0  0  0  0  0  0  0  0  0
  -17.0120   -0.1909    0.0000 C   0  0  0  0  0  0  0  0  0  0  0  0
  -16.0745    0.9800    0.0000 C   0  0  0  0  0  0  0  0  0  0  0  0
  -11.9004   -1.4256    0.0000 C   0  0  0  0  0  0  0  0  0  0  0  0
  -14.0813   -1.1649    0.0000 O   0  0  0  0  0  0  0  0  0  0  0  0
  -12.0465   -2.7847    0.0000 N   0  0  0  0  0  0  0  0  0  0  0  0
  -11.9328   -4.1469    0.0000 C   0  0  0  0  0  0  0  0  0  0  0  0
  -13.7356   -5.2757    0.0000 C   0  0  0  0  0  0  0  0  0  0  0  0
  -15.1626   -4.8133    0.0000 C   0  0  0  0  0  0  0  0  0  0  0  0
  -16.2765   -5.8178    0.0000 C   0  0  0  0  0  0  0  0  0  0  0  0
  -17.7035   -5.3554    0.0000 N   0  0  0  0  0  0  0  0  0  0  0  0
  -18.8174   -6.3600    0.0000 C   0  0  0  0  0  0  0  0  0  0  0  0
  -20.2444   -5.8975    0.0000 N   0  0  0  0  0  0  0  0  0  0  0  0
  -18.5044   -7.8269    0.0000 N   0  0  0  0  0  0  0  0  0  0  0  0
  -11.5634   -5.4629    0.0000 C   0  0  0  0  0  0  0  0  0  0  0  0
  -13.5390   -6.4227    0.0000 O   0  0  0  0  0  0  0  0  0  0  0  0
  -10.9515   -6.6853    0.0000 N   0  0  0  0  0  0  0  0  0  0  0  0
  -10.1194   -7.7698    0.0000 C   0  0  0  0  0  0  0  0  0  0  0  0
  -11.0258   -9.6941    0.0000 C   0  0  0  0  0  0  0  0  0  0  0  0
  -12.4762  -10.0765    0.0000 C   0  0  0  0  0  0  0  0  0  0  0  0
  -12.8702  -11.5238    0.0000 C   0  0  0  0  0  0  0  0  0  0  0  0
  -14.3207  -11.9063    0.0000 N   0  0  0  0  0  0  0  0  0  0  0  0
  -14.7147  -13.3536    0.0000 C   0  0  0  0  0  0  0  0  0  0  0  0
  -16.1651  -13.7361    0.0000 N   0  0  0  0  0  0  0  0  0  0  0  0
  -13.6582  -14.4185    0.0000 N   0  0  0  0  0  0  0  0  0  0  0  0
   -9.0971   -8.6772    0.0000 C   0  0  0  0  0  0  0  0  0  0  0  0
  -10.2403  -10.5527    0.0000 O   0  0  0  0  0  0  0  0  0  0  0  0
   -7.9216   -9.3747    0.0000 N   0  0  0  0  0  0  0  0  0  0  0  0
   -6.6353   -9.8371    0.0000 C   0  0  0  0  0  0  0  0  0  0  0  0
   -5.2847  -10.0478    0.0000 C   0  0  0  0  0  0  0  0  0  0  0  0
   -3.9186   -9.9990    0.0000 C   0  0  0  0  0  0  0  0  0  0  0  0
   -2.5865   -9.6926    0.0000 C   0  0  0  0  0  0  0  0  0  0  0  0
   -1.3364   -9.1397    0.0000 C   0  0  0  0  0  0  0  0  0  0  0  0
   -0.2136   -8.3601    0.0000 C   0  0  0  0  0  0  0  0  0  0  0  0
    0.7414   -7.3821    0.0000 C   0  0  0  0  0  0  0  0  0  0  0  0
    1.4941   -6.2411    0.0000 C   0  0  0  0  0  0  0  0  0  0  0  0
   -7.8899  -11.5548    0.0000 C   0  0  0  0  0  0  0  0  0  0  0  0
   -6.3574  -11.9460    0.0000 C   0  0  0  0  0  0  0  0  0  0  0  0
   -7.2284  -13.1672    0.0000 O   0  0  0  0  0  0  0  0  0  0  0  0
   -5.0150  -12.6154    0.0000 O   0  0  0  0  0  0  0  0  0  0  0  0
   17.8922   -3.8241    0.0000 H   0  0  0  0  0  0  0  0  0  0  0  0
   14.0154   -6.0941    0.0000 H   0  0  0  0  0  0  0  0  0  0  0  0
   13.9116   -9.0923    0.0000 H   0  0  0  0  0  0  0  0  0  0  0  0
   18.9986   -5.9744    0.0000 H   0  0  0  0  0  0  0  0  0  0  0  0
   23.7950  -11.2949    0.0000 H   0  0  0  0  0  0  0  0  0  0  0  0
   19.8156  -14.6361    0.0000 H   0  0  0  0  0  0  0  0  0  0  0  0
   17.8865  -12.3386    0.0000 H   0  0  0  0  0  0  0  0  0  0  0  0
   22.2573  -15.5240    0.0000 H   0  0  0  0  0  0  0  0  0  0  0  0
   16.9826   -7.2217    0.0000 H   0  0  0  0  0  0  0  0  0  0  0  0
   18.1550   -4.2933    0.0000 H   0  0  0  0  0  0  0  0  0  0  0  0
   22.8911   -6.1779    0.0000 H   0  0  0  0  0  0  0  0  0  0  0  0
   22.4392   -3.6195    0.0000 H   0  0  0  0  0  0  0  0  0  0  0  0
   16.7675   -1.6867    0.0000 H   0  0  0  0  0  0  0  0  0  0  0  0
   13.6095   -2.9878    0.0000 H   0  0  0  0  0  0  0  0  0  0  0  0
   12.7037   -1.2854    0.0000 H   0  0  0  0  0  0  0  0  0  0  0  0
   15.6902   -0.4091    0.0000 H   0  0  0  0  0  0  0  0  0  0  0  0
   14.7844    1.2932    0.0000 H   0  0  0  0  0  0  0  0  0  0  0  0
   14.4026    2.7338    0.0000 H   0  0  0  0  0  0  0  0  0  0  0  0
   13.0277    1.5715    0.0000 H   0  0  0  0  0  0  0  0  0  0  0  0
   12.3653    0.2584    0.0000 H   0  0  0  0  0  0  0  0  0  0  0  0
   12.2166   -0.5745    0.0000 H   0  0  0  0  0  0  0  0  0  0  0  0
   11.6657   -1.1467    0.0000 H   0  0  0  0  0  0  0  0  0  0  0  0
   11.2586   -1.5992    0.0000 H   0  0  0  0  0  0  0  0  0  0  0  0
   10.0679   -2.4625    0.0000 H   0  0  0  0  0  0  0  0  0  0  0  0
    9.1776   -3.1300    0.0000 H   0  0  0  0  0  0  0  0  0  0  0  0
   14.3936    3.3284    0.0000 H   0  0  0  0  0  0  0  0  0  0  0  0
   13.8649    5.0327    0.0000 H   0  0  0  0  0  0  0  0  0  0  0  0
   12.2337    5.1259    0.0000 H   0  0  0  0  0  0  0  0  0  0  0  0
   12.0388    6.6752    0.0000 H   0  0  0  0  0  0  0  0  0  0  0  0
   11.2403    7.2185    0.0000 H   0  0  0  0  0  0  0  0  0  0  0  0
    9.3363    9.7790    0.0000 H   0  0  0  0  0  0  0  0  0  0  0  0
    8.4200    8.6204    0.0000 H   0  0  0  0  0  0  0  0  0  0  0  0
   12.7537    9.1625    0.0000 H   0  0  0  0  0  0  0  0  0  0  0  0
   11.8257    7.6384    0.0000 H   0  0  0  0  0  0  0  0  0  0  0  0
   10.9940   11.9701    0.0000 H   0  0  0  0  0  0  0  0  0  0  0  0
    9.8871   10.5704    0.0000 H   0  0  0  0  0  0  0  0  0  0  0  0
   13.9752   10.3031    0.0000 H   0  0  0  0  0  0  0  0  0  0  0  0
   14.3548   14.7871    0.0000 H   0  0  0  0  0  0  0  0  0  0  0  0
   11.7659   15.0062    0.0000 H   0  0  0  0  0  0  0  0  0  0  0  0
   10.2817   12.8738    0.0000 H   0  0  0  0  0  0  0  0  0  0  0  0
    7.0872    9.4340    0.0000 H   0  0  0  0  0  0  0  0  0  0  0  0
    6.1645    9.1485    0.0000 H   0  0  0  0  0  0  0  0  0  0  0  0
    2.9754    9.2563    0.0000 H   0  0  0  0  0  0  0  0  0  0  0  0
    3.3099    7.8175    0.0000 H   0  0  0  0  0  0  0  0  0  0  0  0
    5.5882   11.5438    0.0000 H   0  0  0  0  0  0  0  0  0  0  0  0
    6.2011    9.8679    0.0000 H   0  0  0  0  0  0  0  0  0  0  0  0
    2.2960   11.9185    0.0000 H   0  0  0  0  0  0  0  0  0  0  0  0
    2.7001   10.1804    0.0000 H   0  0  0  0  0  0  0  0  0  0  0  0
    5.4580   13.2099    0.0000 H   0  0  0  0  0  0  0  0  0  0  0  0
    2.1890   16.3024    0.0000 H   0  0  0  0  0  0  0  0  0  0  0  0
    0.4035   14.4150    0.0000 H   0  0  0  0  0  0  0  0  0  0  0  0
    1.1453   11.9251    0.0000 H   0  0  0  0  0  0  0  0  0  0  0  0
    1.8429    7.2828    0.0000 H   0  0  0  0  0  0  0  0  0  0  0  0
    1.3303    6.2952    0.0000 H   0  0  0  0  0  0  0  0  0  0  0  0
   -0.8087    4.4548    0.0000 H   0  0  0  0  0  0  0  0  0  0  0  0
    0.5685    3.3201    0.0000 H   0  0  0  0  0  0  0  0  0  0  0  0
   -2.6864    6.9723    0.0000 H   0  0  0  0  0  0  0  0  0  0  0  0
   -2.5558    4.4854    0.0000 H   0  0  0  0  0  0  0  0  0  0  0  0
    0.2550    1.8414    0.0000 H   0  0  0  0  0  0  0  0  0  0  0  0
    2.8950   -2.0558    0.0000 H   0  0  0  0  0  0  0  0  0  0  0  0
    1.5894   -0.8482    0.0000 H   0  0  0  0  0  0  0  0  0  0  0  0
    4.5287   -2.9562    0.0000 H   0  0  0  0  0  0  0  0  0  0  0  0
    3.2657   -2.6149    0.0000 H   0  0  0  0  0  0  0  0  0  0  0  0
    6.1884   -3.4106    0.0000 H   0  0  0  0  0  0  0  0  0  0  0  0
    5.0477   -3.3811    0.0000 H   0  0  0  0  0  0  0  0  0  0  0  0
    7.2862   -3.5922    0.0000 H   0  0  0  0  0  0  0  0  0  0  0  0
    3.7529    0.3679    0.0000 H   0  0  0  0  0  0  0  0  0  0  0  0
    4.1188   -1.3274    0.0000 H   0  0  0  0  0  0  0  0  0  0  0  0
    4.4506   -1.8112    0.0000 H   0  0  0  0  0  0  0  0  0  0  0  0
    4.2486   -3.0540    0.0000 H   0  0  0  0  0  0  0  0  0  0  0  0
    4.4829   -3.5918    0.0000 H   0  0  0  0  0  0  0  0  0  0  0  0
    4.1706   -4.6366    0.0000 H   0  0  0  0  0  0  0  0  0  0  0  0
    4.1206   -5.6232    0.0000 H   0  0  0  0  0  0  0  0  0  0  0  0
    1.2323    4.2653    0.0000 H   0  0  0  0  0  0  0  0  0  0  0  0
    0.2927    4.9090    0.0000 H   0  0  0  0  0  0  0  0  0  0  0  0
   -0.3754    6.8342    0.0000 H   0  0  0  0  0  0  0  0  0  0  0  0
    0.5824    5.0046    0.0000 H   0  0  0  0  0  0  0  0  0  0  0  0
   -3.6169    6.5490    0.0000 H   0  0  0  0  0  0  0  0  0  0  0  0
   -3.1356    4.9876    0.0000 H   0  0  0  0  0  0  0  0  0  0  0  0
   -1.7188    9.0580    0.0000 H   0  0  0  0  0  0  0  0  0  0  0  0
   -0.7046    7.5898    0.0000 H   0  0  0  0  0  0  0  0  0  0  0  0
   -4.9508    7.9208    0.0000 H   0  0  0  0  0  0  0  0  0  0  0  0
   -4.8905   12.0862    0.0000 H   0  0  0  0  0  0  0  0  0  0  0  0
   -2.2929   12.1377    0.0000 H   0  0  0  0  0  0  0  0  0  0  0  0
   -0.9495    9.9139    0.0000 H   0  0  0  0  0  0  0  0  0  0  0  0
   -3.4099    6.4075    0.0000 H   0  0  0  0  0  0  0  0  0  0  0  0
   -4.3935    6.3166    0.0000 H   0  0  0  0  0  0  0  0  0  0  0  0
   -7.1856    7.1448    0.0000 H   0  0  0  0  0  0  0  0  0  0  0  0
   -7.2750    5.5134    0.0000 H   0  0  0  0  0  0  0  0  0  0  0  0
   -4.5155    8.8770    0.0000 H   0  0  0  0  0  0  0  0  0  0  0  0
   -4.0032    6.8765    0.0000 H   0  0  0  0  0  0  0  0  0  0  0  0
   -7.3606    9.7370    0.0000 H   0  0  0  0  0  0  0  0  0  0  0  0
   -7.3493    7.9526    0.0000 H   0  0  0  0  0  0  0  0  0  0  0  0
   -4.0607   10.6591    0.0000 H   0  0  0  0  0  0  0  0  0  0  0  0
   -6.4992   14.0367    0.0000 H   0  0  0  0  0  0  0  0  0  0  0  0
   -8.6565   12.5891    0.0000 H   0  0  0  0  0  0  0  0  0  0  0  0
   -8.4815    9.9969    0.0000 H   0  0  0  0  0  0  0  0  0  0  0  0
   -8.4839    5.7807    0.0000 H   0  0  0  0  0  0  0  0  0  0  0  0
   -9.2508    5.1070    0.0000 H   0  0  0  0  0  0  0  0  0  0  0  0
  -12.2305    4.2959    0.0000 H   0  0  0  0  0  0  0  0  0  0  0  0
  -11.4238    2.8752    0.0000 H   0  0  0  0  0  0  0  0  0  0  0  0
  -10.5574    7.1559    0.0000 H   0  0  0  0  0  0  0  0  0  0  0  0
   -9.4309    5.9725    0.0000 H   0  0  0  0  0  0  0  0  0  0  0  0
  -13.7792    6.3820    0.0000 H   0  0  0  0  0  0  0  0  0  0  0  0
  -12.8050    4.8870    0.0000 H   0  0  0  0  0  0  0  0  0  0  0  0
  -11.2496    8.6770    0.0000 H   0  0  0  0  0  0  0  0  0  0  0  0
  -15.3792   10.4649    0.0000 H   0  0  0  0  0  0  0  0  0  0  0  0
  -16.4114    8.0807    0.0000 H   0  0  0  0  0  0  0  0  0  0  0  0
  -14.8628    5.9946    0.0000 H   0  0  0  0  0  0  0  0  0  0  0  0
  -12.5853    2.4465    0.0000 H   0  0  0  0  0  0  0  0  0  0  0  0
  -13.0212    1.3676    0.0000 H   0  0  0  0  0  0  0  0  0  0  0  0
  -15.0142   -0.6633    0.0000 H   0  0  0  0  0  0  0  0  0  0  0  0
  -13.4877   -1.5873    0.0000 H   0  0  0  0  0  0  0  0  0  0  0  0
  -12.8763    3.2293    0.0000 H   0  0  0  0  0  0  0  0  0  0  0  0
  -15.5461    4.8253    0.0000 H   0  0  0  0  0  0  0  0  0  0  0  0
  -18.6478    4.0012    0.0000 H   0  0  0  0  0  0  0  0  0  0  0  0
  -20.5229    1.6594    0.0000 H   0  0  0  0  0  0  0  0  0  0  0  0
  -19.4323   -1.1354    0.0000 H   0  0  0  0  0  0  0  0  0  0  0  0
  -16.4667   -1.5883    0.0000 H   0  0  0  0  0  0  0  0  0  0  0  0
  -14.2330   -2.5758    0.0000 H   0  0  0  0  0  0  0  0  0  0  0  0
  -13.9387   -3.5533    0.0000 H   0  0  0  0  0  0  0  0  0  0  0  0
  -14.4388   -6.6007    0.0000 H   0  0  0  0  0  0  0  0  0  0  0  0
  -12.8113   -6.4571    0.0000 H   0  0  0  0  0  0  0  0  0  0  0  0
  -16.3453   -3.8907    0.0000 H   0  0  0  0  0  0  0  0  0  0  0  0
  -14.8009   -3.3575    0.0000 H   0  0  0  0  0  0  0  0  0  0  0  0
  -16.9797   -7.1428    0.0000 H   0  0  0  0  0  0  0  0  0  0  0  0
  -15.2151   -6.8777    0.0000 H   0  0  0  0  0  0  0  0  0  0  0  0
  -18.0165   -3.8884    0.0000 H   0  0  0  0  0  0  0  0  0  0  0  0
  -21.3583   -6.9021    0.0000 H   0  0  0  0  0  0  0  0  0  0  0  0
  -19.6184   -8.8315    0.0000 H   0  0  0  0  0  0  0  0  0  0  0  0
  -17.0775   -8.2894    0.0000 H   0  0  0  0  0  0  0  0  0  0  0  0
  -12.9039   -7.6916    0.0000 H   0  0  0  0  0  0  0  0  0  0  0  0
  -12.1279   -8.3549    0.0000 H   0  0  0  0  0  0  0  0  0  0  0  0
  -10.9010  -11.1889    0.0000 H   0  0  0  0  0  0  0  0  0  0  0  0
   -9.6095  -10.1882    0.0000 H   0  0  0  0  0  0  0  0  0  0  0  0
  -13.9700   -9.9398    0.0000 H   0  0  0  0  0  0  0  0  0  0  0  0
  -12.9590   -8.6563    0.0000 H   0  0  0  0  0  0  0  0  0  0  0  0
  -12.7455  -13.0187    0.0000 H   0  0  0  0  0  0  0  0  0  0  0  0
  -11.4043  -11.8416    0.0000 H   0  0  0  0  0  0  0  0  0  0  0  0
  -15.3771  -10.8414    0.0000 H   0  0  0  0  0  0  0  0  0  0  0  0
  -16.5591  -15.1834    0.0000 H   0  0  0  0  0  0  0  0  0  0  0  0
  -14.0523  -15.8658    0.0000 H   0  0  0  0  0  0  0  0  0  0  0  0
  -12.2078  -14.0361    0.0000 H   0  0  0  0  0  0  0  0  0  0  0  0
   -9.0199  -11.2768    0.0000 H   0  0  0  0  0  0  0  0  0  0  0  0
   -4.6127  -12.0659    0.0000 H   0  0  0  0  0  0  0  0  0  0  0  0
   -5.8694  -12.1448    0.0000 H   0  0  0  0  0  0  0  0  0  0  0  0
   -3.0254  -11.9607    0.0000 H   0  0  0  0  0  0  0  0  0  0  0  0
   -4.0959  -12.1688    0.0000 H   0  0  0  0  0  0  0  0  0  0  0  0
   -1.3382  -11.4498    0.0000 H   0  0  0  0  0  0  0  0  0  0  0  0
   -2.5329  -11.8475    0.0000 H   0  0  0  0  0  0  0  0  0  0  0  0
    0.2219  -10.6289    0.0000 H   0  0  0  0  0  0  0  0  0  0  0  0
   -0.8760  -11.2454    0.0000 H   0  0  0  0  0  0  0  0  0  0  0  0
    1.5984   -9.5275    0.0000 H   0  0  0  0  0  0  0  0  0  0  0  0
    0.6371  -10.3406    0.0000 H   0  0  0  0  0  0  0  0  0  0  0  0
    2.7751   -8.0054    0.0000 H   0  0  0  0  0  0  0  0  0  0  0  0
    1.9515   -9.1659    0.0000 H   0  0  0  0  0  0  0  0  0  0  0  0
    3.4374   -7.2725    0.0000 H   0  0  0  0  0  0  0  0  0  0  0  0
   -7.7107  -13.0440    0.0000 H   0  0  0  0  0  0  0  0  0  0  0  0
   -9.1775  -12.3243    0.0000 H   0  0  0  0  0  0  0  0  0  0  0  0
   -9.0023  -10.5485    0.0000 H   0  0  0  0  0  0  0  0  0  0  0  0
   -4.4419  -13.7013    0.0000 H   0  0  0  0  0  0  0  0  0  0  0  0
  1  2  1  0
  2  3  1  0
  3  4  2  0
  4  5  1  0
  5  6  2  0
  6  7  1  0
  7  8  2  0
  7  9  1  0
  9 10  1  0
 10 11  1  0
 11 12  2  0
  9 13  1  0
 13 14  1  0
 14 15  2  0
 15 16  1  0
 16 17  2  0
 17 18  1  0
 16 19  1  0
 14 20  1  0
 20 21  1  0
 21 22  2  0
 22 23  1  0
 23 24  2  0
 24 25  1  0
 25 26  2  0
 25 27  1  0
  1 28  2  0
  1 29  1  0
 29 30  1  0
 30 31  1  0
 31 32  1  0
 32 33  2  0
 32 34  1  0
 35 34  1  1
 35 36  1  0
 36 37  1  0
 37 38  1  0
 38 39  1  0
 35 40  1  0
 35 41  1  0
 41 42  2  0
 41 43  1  0
 43 44  1  0
 44 45  1  0
 45 46  1  0
 46 47  1  0
 47 48  1  0
 48 49  1  0
 49 50  2  3
 49 51  1  0
 44 52  1  0
 52 53  2  0
 52 54  1  0
 54 55  1  0
 55 56  1  0
 56 57  1  0
 57 58  1  0
 58 59  1  0
 59 60  1  0
 60 61  2  3
 60 62  1  0
 55 63  1  0
 63 64  2  0
 63 65  1  0
 65 66  1  0
 66 67  1  0
 67 68  1  0
 68 69  1  0
 68 70  2  0
 66 71  1  0
 71 72  2  0
 71 73  1  0
 73 74  1  0
 74 75  1  0
 75 76  1  0
 76 77  1  0
 77 78  1  0
 74 79  1  0
 79 80  1  0
 80 81  1  0
 81 82  1  0
 74 83  1  0
 83 84  2  0
 83 85  1  0
 85 86  1  0
 86 87  1  0
 87 88  1  0
 88 89  1  0
 89 90  1  0
 90 91  1  0
 91 92  2  3
 91 93  1  0
 86 94  1  0
 94 95  2  0
 94 96  1  0
 96 97  1  0
 97 98  1  0
 98 99  1  0
 99100  1  0
100101  1  0
101102  1  0
102103  2  3
102104  1  0
 97105  1  0
105106  2  0
105107  1  0
107108  1  0
108109  1  0
109110  1  0
110111  1  0
111112  1  0
112113  1  0
113114  2  3
113115  1  0
108116  1  0
116117  2  0
116118  1  0
118119  1  0
119120  1  0
120121  1  0
121122  2  0
122123  1  0
123124  1  0
124125  2  0
125126  1  0
126127  2  0
127128  1  0
128129  2  0
119130  1  0
130131  2  0
130132  1  0
132133  1  0
133134  1  0
134135  1  0
135136  1  0
136137  1  0
137138  1  0
138139  2  3
138140  1  0
133141  1  0
141142  2  0
141143  1  0
143144  1  0
144145  1  0
145146  1  0
146147  1  0
147148  1  0
148149  1  0
149150  2  3
149151  1  0
144152  1  0
152153  2  0
152154  1  0
154155  1  0
155156  1  0
156157  1  0
157158  1  0
158159  1  0
159160  1  0
160161  1  0
161162  1  0
155163  1  0
155164  1  1
164165  2  0
164166  1  0
  8  3  1  0
129121  1  0
 11  6  1  0
 39 78  2  0
129124  1  0
 18 13  2  0
 82162  2  0
 22  9  1  0
 26 21  1  0
  2167  1  0
  4168  1  0
  5169  1  0
  8170  1  0
 15171  1  0
 17172  1  0
 18173  1  0
 19174  1  0
 23175  1  0
 24176  1  0
 26177  1  0
 27178  1  0
 29179  1  0
 30180  1  0
 30181  1  0
 31182  1  0
 31183  1  0
 34184  1  0
 36185  1  0
 36186  1  0
 37187  1  0
 37188  1  0
 38189  1  0
 38190  1  0
 39191  1  0
 40192  1  0
 40193  1  0
 40194  1  0
 43195  1  0
 44196  1  6
 45197  1  0
 45198  1  0
 46199  1  0
 46200  1  0
 47201  1  0
 47202  1  0
 48203  1  0
 50204  1  0
 51205  1  0
 51206  1  0
 54207  1  0
 55208  1  6
 56209  1  0
 56210  1  0
 57211  1  0
 57212  1  0
 58213  1  0
 58214  1  0
 59215  1  0
 61216  1  0
 62217  1  0
 62218  1  0
 65219  1  0
 66220  1  6
 67221  1  0
 67222  1  0
 69223  1  0
 69224  1  0
 73225  1  0
 75226  1  0
 75227  1  0
 76228  1  0
 76229  1  0
 77230  1  0
 77231  1  0
 78232  1  0
 79233  1  0
 79234  1  0
 80235  1  0
 80236  1  0
 81237  1  0
 81238  1  0
 82239  1  0
 85240  1  0
 86241  1  6
 87242  1  0
 87243  1  0
 88244  1  0
 88245  1  0
 89246  1  0
 89247  1  0
 90248  1  0
 92249  1  0
 93250  1  0
 93251  1  0
 96252  1  0
 97253  1  6
 98254  1  0
 98255  1  0
 99256  1  0
 99257  1  0
100258  1  0
100259  1  0
101260  1  0
103261  1  0
104262  1  0
104263  1  0
107264  1  0
108265  1  6
109266  1  0
109267  1  0
110268  1  0
110269  1  0
111270  1  0
111271  1  0
112272  1  0
114273  1  0
115274  1  0
115275  1  0
118276  1  0
119277  1  6
120278  1  0
120279  1  0
122280  1  0
123281  1  0
125282  1  0
126283  1  0
127284  1  0
128285  1  0
132286  1  0
133287  1  6
134288  1  0
134289  1  0
135290  1  0
135291  1  0
136292  1  0
136293  1  0
137294  1  0
139295  1  0
140296  1  0
140297  1  0
143298  1  0
144299  1  6
145300  1  0
145301  1  0
146302  1  0
146303  1  0
147304  1  0
147305  1  0
148306  1  0
150307  1  0
151308  1  0
151309  1  0
154310  1  0
156311  1  0
156312  1  0
157313  1  0
157314  1  0
158315  1  0
158316  1  0
159317  1  0
159318  1  0
160319  1  0
160320  1  0
161321  1  0
161322  1  0
162323  1  0
163324  1  0
163325  1  0
163326  1  0
166327  1  0
M  END
