
     RDKit          2D

381388  0  0  0  0  0  0  0  0999 V2000
   23.4743    2.6639    0.0000 C   0  0  0  0  0  0  0  0  0  0  0  0
   23.7870    4.1309    0.0000 N   0  0  0  0  0  0  0  0  0  0  0  0
   25.2138    4.5936    0.0000 C   0  0  0  0  0  0  0  0  0  0  0  0
   26.3280    3.5893    0.0000 C   0  0  0  0  0  0  0  0  0  0  0  0
   27.7548    4.0520    0.0000 C   0  0  0  0  0  0  0  0  0  0  0  0
   28.0676    5.5190    0.0000 C   0  0  0  0  0  0  0  0  0  0  0  0
   26.9534    6.5234    0.0000 C   0  0  0  0  0  0  0  0  0  0  0  0
   25.5266    6.0607    0.0000 C   0  0  0  0  0  0  0  0  0  0  0  0
   27.5643    7.8933    0.0000 C   0  0  0  0  0  0  0  0  0  0  0  0
   29.0560    7.7357    0.0000 O   0  0  0  0  0  0  0  0  0  0  0  0
   29.3670    6.2683    0.0000 C   0  0  0  0  0  0  0  0  0  0  0  0
   30.7370    5.6574    0.0000 O   0  0  0  0  0  0  0  0  0  0  0  0
   28.3151    9.1919    0.0000 C   0  0  0  0  0  0  0  0  0  0  0  0
   27.5658   10.4914    0.0000 C   0  0  0  0  0  0  0  0  0  0  0  0
   28.3166   11.7900    0.0000 C   0  0  0  0  0  0  0  0  0  0  0  0
   29.8166   11.7891    0.0000 C   0  0  0  0  0  0  0  0  0  0  0  0
   30.5658   10.4897    0.0000 C   0  0  0  0  0  0  0  0  0  0  0  0
   29.8151    9.1911    0.0000 C   0  0  0  0  0  0  0  0  0  0  0  0
   30.5673   13.0878    0.0000 O   0  0  0  0  0  0  0  0  0  0  0  0
   26.0658   10.4923    0.0000 O   0  0  0  0  0  0  0  0  0  0  0  0
   25.3151    9.1937    0.0000 C   0  0  0  0  0  0  0  0  0  0  0  0
   26.0643    7.8942    0.0000 C   0  0  0  0  0  0  0  0  0  0  0  0
   24.9639    7.2020    0.0000 C   0  0  0  0  0  0  0  0  0  0  0  0
   24.1639    7.2025    0.0000 C   0  0  0  0  0  0  0  0  0  0  0  0
   23.7643    7.8955    0.0000 C   0  0  0  0  0  0  0  0  0  0  0  0
   24.1647    8.5881    0.0000 C   0  0  0  0  0  0  0  0  0  0  0  0
   21.5643    7.8968    0.0000 O   0  0  0  0  0  0  0  0  0  0  0  0
   24.5884    1.6595    0.0000 S   0  0  0  0  0  0  0  0  0  0  0  0
   22.0474    2.2012    0.0000 N   0  0  0  0  0  0  0  0  0  0  0  0
   21.7347    0.7341    0.0000 C   0  0  0  0  0  0  0  0  0  0  0  0
   20.3079    0.2714    0.0000 C   0  0  0  0  0  0  0  0  0  0  0  0
   19.9952   -1.1956    0.0000 C   0  0  0  0  0  0  0  0  0  0  0  0
   20.6988   -1.5702    0.0000 O   0  0  0  0  0  0  0  0  0  0  0  0
   18.5683   -1.6583    0.0000 N   0  0  0  0  0  0  0  0  0  0  0  0
   18.2556   -3.1254    0.0000 C   0  0  0  0  0  0  0  0  0  0  0  0
   19.7547   -3.1786    0.0000 C   0  0  0  0  0  0  0  0  0  0  0  0
   20.5503   -1.9070    0.0000 C   0  0  0  0  0  0  0  0  0  0  0  0
   22.0493   -1.9602    0.0000 C   0  0  0  0  0  0  0  0  0  0  0  0
   22.8449   -0.6886    0.0000 N   0  0  0  0  0  0  0  0  0  0  0  0
   24.3440   -0.7418    0.0000 C   0  0  0  0  0  0  0  0  0  0  0  0
   25.1396    0.5298    0.0000 N   0  0  0  0  0  0  0  0  0  0  0  0
   25.0474   -2.0666    0.0000 N   0  0  0  0  0  0  0  0  0  0  0  0
   17.4600   -4.3970    0.0000 C   0  0  0  0  0  0  0  0  0  0  0  0
   18.4631   -5.5122    0.0000 O   0  0  0  0  0  0  0  0  0  0  0  0
   15.9609   -4.3438    0.0000 N   0  0  0  0  0  0  0  0  0  0  0  0
   15.1653   -5.6154    0.0000 C   0  0  0  0  0  0  0  0  0  0  0  0
   16.5558   -6.1781    0.0000 C   0  0  0  0  0  0  0  0  0  0  0  0
   17.7383   -5.2553    0.0000 C   0  0  0  0  0  0  0  0  0  0  0  0
   19.1288   -5.8180    0.0000 C   0  0  0  0  0  0  0  0  0  0  0  0
   20.4150   -5.0462    0.0000 N   0  0  0  0  0  0  0  0  0  0  0  0
   19.3367   -7.3035    0.0000 O   0  0  0  0  0  0  0  0  0  0  0  0
   13.9828   -6.5382    0.0000 C   0  0  0  0  0  0  0  0  0  0  0  0
   14.5440   -7.9293    0.0000 O   0  0  0  0  0  0  0  0  0  0  0  0
   12.5923   -5.9755    0.0000 N   0  0  0  0  0  0  0  0  0  0  0  0
   11.4098   -6.8983    0.0000 C   0  0  0  0  0  0  0  0  0  0  0  0
   12.5239   -7.9026    0.0000 C   0  0  0  0  0  0  0  0  0  0  0  0
   13.9508   -7.4399    0.0000 C   0  0  0  0  0  0  0  0  0  0  0  0
   13.2274   -9.2275    0.0000 C   0  0  0  0  0  0  0  0  0  0  0  0
   14.7264   -9.2807    0.0000 C   0  0  0  0  0  0  0  0  0  0  0  0
    9.9829   -7.3610    0.0000 C   0  0  0  0  0  0  0  0  0  0  0  0
   10.0345   -8.8601    0.0000 O   0  0  0  0  0  0  0  0  0  0  0  0
    8.8688   -6.3567    0.0000 N   0  0  0  0  0  0  0  0  0  0  0  0
    7.4419   -6.8194    0.0000 C   0  0  0  0  0  0  0  0  0  0  0  0
    8.1454   -8.1442    0.0000 C   0  0  0  0  0  0  0  0  0  0  0  0
    9.6444   -8.1974    0.0000 C   0  0  0  0  0  0  0  0  0  0  0  0
   10.3479   -9.5222    0.0000 C   0  0  0  0  0  0  0  0  0  0  0  0
   11.8469   -9.5754    0.0000 C   0  0  0  0  0  0  0  0  0  0  0  0
   12.3836  -10.9761    0.0000 N   0  0  0  0  0  0  0  0  0  0  0  0
    5.9429   -6.7662    0.0000 C   0  0  0  0  0  0  0  0  0  0  0  0
    5.4786   -8.1925    0.0000 O   0  0  0  0  0  0  0  0  0  0  0  0
    5.2394   -5.4413    0.0000 N   0  0  0  0  0  0  0  0  0  0  0  0
    3.7404   -5.3881    0.0000 C   0  0  0  0  0  0  0  0  0  0  0  0
    3.9483   -6.8736    0.0000 C   0  0  0  0  0  0  0  0  0  0  0  0
    5.3387   -7.4363    0.0000 C   0  0  0  0  0  0  0  0  0  0  0  0
    3.6356   -8.3407    0.0000 C   0  0  0  0  0  0  0  0  0  0  0  0
    4.8638   -9.2017    0.0000 C   0  0  0  0  0  0  0  0  0  0  0  0
    2.3499   -4.8254    0.0000 C   0  0  0  0  0  0  0  0  0  0  0  0
    1.4258   -6.0069    0.0000 O   0  0  0  0  0  0  0  0  0  0  0  0
    2.1420   -3.3399    0.0000 N   0  0  0  0  0  0  0  0  0  0  0  0
    0.7516   -2.7772    0.0000 C   0  0  0  0  0  0  0  0  0  0  0  0
    0.4389   -4.2442    0.0000 C   0  0  0  0  0  0  0  0  0  0  0  0
    1.5530   -5.2485    0.0000 C   0  0  0  0  0  0  0  0  0  0  0  0
    3.0204   -4.9375    0.0000 C   0  0  0  0  0  0  0  0  0  0  0  0
    3.7696   -6.2370    0.0000 N   0  0  0  0  0  0  0  0  0  0  0  0
    2.7653   -7.3511    0.0000 C   0  0  0  0  0  0  0  0  0  0  0  0
    2.9212   -8.8430    0.0000 C   0  0  0  0  0  0  0  0  0  0  0  0
    1.7072   -9.7240    0.0000 C   0  0  0  0  0  0  0  0  0  0  0  0
    0.3372   -9.1131    0.0000 C   0  0  0  0  0  0  0  0  0  0  0  0
    0.1813   -7.6212    0.0000 C   0  0  0  0  0  0  0  0  0  0  0  0
    1.3953   -6.7402    0.0000 C   0  0  0  0  0  0  0  0  0  0  0  0
   -0.3626   -1.7728    0.0000 C   0  0  0  0  0  0  0  0  0  0  0  0
   -1.6351   -2.5670    0.0000 O   0  0  0  0  0  0  0  0  0  0  0  0
   -0.0499   -0.3058    0.0000 N   0  0  0  0  0  0  0  0  0  0  0  0
   -1.1640    0.6985    0.0000 C   0  0  0  0  0  0  0  0  0  0  0  0
   -1.5691   -0.7457    0.0000 C   0  0  0  0  0  0  0  0  0  0  0  0
   -2.2403   -2.0872    0.0000 C   0  0  0  0  0  0  0  0  0  0  0  0
   -3.1531   -3.2774    0.0000 C   0  0  0  0  0  0  0  0  0  0  0  0
   -4.2748   -4.2734    0.0000 C   0  0  0  0  0  0  0  0  0  0  0  0
    0.2306    1.2508    0.0000 C   0  0  0  0  0  0  0  0  0  0  0  0
   -1.0395    2.1934    0.0000 C   0  0  0  0  0  0  0  0  0  0  0  0
    0.4470    2.3942    0.0000 O   0  0  0  0  0  0  0  0  0  0  0  0
   -1.2002    3.6847    0.0000 N   0  0  0  0  0  0  0  0  0  0  0  0
   -1.6402    5.1188    0.0000 C   0  0  0  0  0  0  0  0  0  0  0  0
   -0.7655    6.3374    0.0000 C   0  0  0  0  0  0  0  0  0  0  0  0
    0.7271    6.1892    0.0000 C   0  0  0  0  0  0  0  0  0  0  0  0
    1.6018    7.4078    0.0000 C   0  0  0  0  0  0  0  0  0  0  0  0
    3.0944    7.2596    0.0000 N   0  0  0  0  0  0  0  0  0  0  0  0
    0.9838    8.7745    0.0000 O   0  0  0  0  0  0  0  0  0  0  0  0
   -2.3436    6.4436    0.0000 C   0  0  0  0  0  0  0  0  0  0  0  0
   -1.2017    7.4162    0.0000 O   0  0  0  0  0  0  0  0  0  0  0  0
   -3.2851    7.6113    0.0000 N   0  0  0  0  0  0  0  0  0  0  0  0
   -4.4305    8.5798    0.0000 C   0  0  0  0  0  0  0  0  0  0  0  0
   -4.3536   10.0778    0.0000 C   0  0  0  0  0  0  0  0  0  0  0  0
   -3.0177   10.7602    0.0000 C   0  0  0  0  0  0  0  0  0  0  0  0
   -2.9407   12.2582    0.0000 N   0  0  0  0  0  0  0  0  0  0  0  0
   -1.7589    9.9445    0.0000 O   0  0  0  0  0  0  0  0  0  0  0  0
   -5.7386    9.3140    0.0000 C   0  0  0  0  0  0  0  0  0  0  0  0
   -5.3038   10.7496    0.0000 O   0  0  0  0  0  0  0  0  0  0  0  0
   -7.1619    9.7874    0.0000 N   0  0  0  0  0  0  0  0  0  0  0  0
   -8.6491    9.9829    0.0000 C   0  0  0  0  0  0  0  0  0  0  0  0
   -9.3943   11.2847    0.0000 C   0  0  0  0  0  0  0  0  0  0  0  0
   -8.6394   12.5809    0.0000 C   0  0  0  0  0  0  0  0  0  0  0  0
   -9.3845   13.8828    0.0000 C   0  0  0  0  0  0  0  0  0  0  0  0
   -8.6296   15.1790    0.0000 N   0  0  0  0  0  0  0  0  0  0  0  0
   -9.3748   16.4808    0.0000 C   0  0  0  0  0  0  0  0  0  0  0  0
   -8.6199   17.7771    0.0000 N   0  0  0  0  0  0  0  0  0  0  0  0
  -10.8748   16.4865    0.0000 N   0  0  0  0  0  0  0  0  0  0  0  0
  -10.1465    9.8934    0.0000 C   0  0  0  0  0  0  0  0  0  0  0  0
  -10.5568   11.3361    0.0000 O   0  0  0  0  0  0  0  0  0  0  0  0
  -11.5998    9.5221    0.0000 N   0  0  0  0  0  0  0  0  0  0  0  0
  -12.9566    8.8825    0.0000 C   0  0  0  0  0  0  0  0  0  0  0  0
  -14.2872    9.5748    0.0000 C   0  0  0  0  0  0  0  0  0  0  0  0
  -14.3530   11.0734    0.0000 C   0  0  0  0  0  0  0  0  0  0  0  0
  -15.6837   11.7657    0.0000 C   0  0  0  0  0  0  0  0  0  0  0  0
  -15.7494   13.2643    0.0000 N   0  0  0  0  0  0  0  0  0  0  0  0
  -17.0801   13.9566    0.0000 C   0  0  0  0  0  0  0  0  0  0  0  0
  -17.1458   15.4551    0.0000 N   0  0  0  0  0  0  0  0  0  0  0  0
  -18.3450   13.1504    0.0000 N   0  0  0  0  0  0  0  0  0  0  0  0
  -14.1678    7.9976    0.0000 C   0  0  0  0  0  0  0  0  0  0  0  0
  -15.2931    8.9895    0.0000 O   0  0  0  0  0  0  0  0  0  0  0  0
  -15.1897    6.8996    0.0000 N   0  0  0  0  0  0  0  0  0  0  0  0
  -15.9853    5.6280    0.0000 C   0  0  0  0  0  0  0  0  0  0  0  0
  -17.4790    5.4910    0.0000 C   0  0  0  0  0  0  0  0  0  0  0  0
  -18.3445    6.7161    0.0000 C   0  0  0  0  0  0  0  0  0  0  0  0
  -19.8383    6.5791    0.0000 S   0  0  0  0  0  0  0  0  0  0  0  0
  -20.7038    7.8042    0.0000 C   0  0  0  0  0  0  0  0  0  0  0  0
  -16.5259    4.2288    0.0000 C   0  0  0  0  0  0  0  0  0  0  0  0
  -18.0088    4.4548    0.0000 O   0  0  0  0  0  0  0  0  0  0  0  0
  -16.7919    2.7525    0.0000 N   0  0  0  0  0  0  0  0  0  0  0  0
  -16.7737    1.2527    0.0000 C   0  0  0  0  0  0  0  0  0  0  0  0
  -17.9563    0.3298    0.0000 C   0  0  0  0  0  0  0  0  0  0  0  0
  -19.3467    0.8925    0.0000 C   0  0  0  0  0  0  0  0  0  0  0  0
  -20.5293   -0.0303    0.0000 C   0  0  0  0  0  0  0  0  0  0  0  0
  -21.9197    0.5324    0.0000 C   0  0  0  0  0  0  0  0  0  0  0  0
  -23.1023   -0.3904    0.0000 N   0  0  0  0  0  0  0  0  0  0  0  0
  -16.4720   -0.2167    0.0000 C   0  0  0  0  0  0  0  0  0  0  0  0
  -17.8417   -0.8282    0.0000 O   0  0  0  0  0  0  0  0  0  0  0  0
  -15.8977   -1.6024    0.0000 N   0  0  0  0  0  0  0  0  0  0  0  0
  -15.0715   -2.8544    0.0000 C   0  0  0  0  0  0  0  0  0  0  0  0
  -14.0233   -3.9273    0.0000 C   0  0  0  0  0  0  0  0  0  0  0  0
  -12.7910   -4.7825    0.0000 C   0  0  0  0  0  0  0  0  0  0  0  0
  -11.4191   -5.3891    0.0000 C   0  0  0  0  0  0  0  0  0  0  0  0
   -9.9572   -5.7250    0.0000 C   0  0  0  0  0  0  0  0  0  0  0  0
   -8.4581   -5.7782    0.0000 C   0  0  0  0  0  0  0  0  0  0  0  0
   -6.9761   -5.5468    0.0000 C   0  0  0  0  0  0  0  0  0  0  0  0
   -5.5646   -5.0391    0.0000 C   0  0  0  0  0  0  0  0  0  0  0  0
  -16.5601   -3.0387    0.0000 C   0  0  0  0  0  0  0  0  0  0  0  0
  -15.5674   -4.2700    0.0000 C   0  0  0  0  0  0  0  0  0  0  0  0
  -14.8936   -5.6102    0.0000 O   0  0  0  0  0  0  0  0  0  0  0  0
  -17.0414   -4.5484    0.0000 N   0  0  0  0  0  0  0  0  0  0  0  0
  -17.5373   -5.9640    0.0000 C   0  0  0  0  0  0  0  0  0  0  0  0
  -17.5191   -7.4639    0.0000 C   0  0  0  0  0  0  0  0  0  0  0  0
  -18.8089   -8.2296    0.0000 C   0  0  0  0  0  0  0  0  0  0  0  0
  -18.7908   -9.7295    0.0000 C   0  0  0  0  0  0  0  0  0  0  0  0
  -20.0806  -10.4952    0.0000 C   0  0  0  0  0  0  0  0  0  0  0  0
  -20.0625  -11.9950    0.0000 N   0  0  0  0  0  0  0  0  0  0  0  0
  -19.0112   -6.2424    0.0000 C   0  0  0  0  0  0  0  0  0  0  0  0
  -19.9892   -5.1051    0.0000 O   0  0  0  0  0  0  0  0  0  0  0  0
  -19.5071   -7.6580    0.0000 N   0  0  0  0  0  0  0  0  0  0  0  0
  -20.9811   -7.9364    0.0000 C   0  0  0  0  0  0  0  0  0  0  0  0
  -22.4613   -7.6938    0.0000 C   0  0  0  0  0  0  0  0  0  0  0  0
  -22.9914   -6.2906    0.0000 C   0  0  0  0  0  0  0  0  0  0  0  0
  -24.4717   -6.0480    0.0000 C   0  0  0  0  0  0  0  0  0  0  0  0
  -25.0017   -4.6448    0.0000 C   0  0  0  0  0  0  0  0  0  0  0  0
  -26.4820   -4.4023    0.0000 N   0  0  0  0  0  0  0  0  0  0  0  0
  -21.4770   -9.3520    0.0000 C   0  0  0  0  0  0  0  0  0  0  0  0
  -22.9060   -9.8080    0.0000 O   0  0  0  0  0  0  0  0  0  0  0  0
  -20.8032  -10.6922    0.0000 O   0  0  0  0  0  0  0  0  0  0  0  0
   22.5587    4.9920    0.0000 H   0  0  0  0  0  0  0  0  0  0  0  0
   26.0153    2.1222    0.0000 H   0  0  0  0  0  0  0  0  0  0  0  0
   28.8690    3.0476    0.0000 H   0  0  0  0  0  0  0  0  0  0  0  0
   24.2025    6.7656    0.0000 H   0  0  0  0  0  0  0  0  0  0  0  0
   27.5673   13.0895    0.0000 H   0  0  0  0  0  0  0  0  0  0  0  0
   32.0658   10.4888    0.0000 H   0  0  0  0  0  0  0  0  0  0  0  0
   30.5643    7.8916    0.0000 H   0  0  0  0  0  0  0  0  0  0  0  0
   32.0673   13.0869    0.0000 H   0  0  0  0  0  0  0  0  0  0  0  0
   26.0628    5.2961    0.0000 H   0  0  0  0  0  0  0  0  0  0  0  0
   22.9101    5.3990    0.0000 H   0  0  0  0  0  0  0  0  0  0  0  0
   23.0658   10.4940    0.0000 H   0  0  0  0  0  0  0  0  0  0  0  0
   20.8151    9.1963    0.0000 H   0  0  0  0  0  0  0  0  0  0  0  0
   20.9333    3.2055    0.0000 H   0  0  0  0  0  0  0  0  0  0  0  0
   23.2338    0.6809    0.0000 H   0  0  0  0  0  0  0  0  0  0  0  0
   22.2959   -0.6569    0.0000 H   0  0  0  0  0  0  0  0  0  0  0  0
   20.1000    1.7569    0.0000 H   0  0  0  0  0  0  0  0  0  0  0  0
   18.8088    0.3246    0.0000 H   0  0  0  0  0  0  0  0  0  0  0  0
   17.4542   -0.6540    0.0000 H   0  0  0  0  0  0  0  0  0  0  0  0
   16.8651   -2.5627    0.0000 H   0  0  0  0  0  0  0  0  0  0  0  0
   21.0661   -3.9066    0.0000 H   0  0  0  0  0  0  0  0  0  0  0  0
   19.6231   -4.6728    0.0000 H   0  0  0  0  0  0  0  0  0  0  0  0
   20.8630   -0.4399    0.0000 H   0  0  0  0  0  0  0  0  0  0  0  0
   19.3373   -1.0245    0.0000 H   0  0  0  0  0  0  0  0  0  0  0  0
   23.4398   -2.5229    0.0000 H   0  0  0  0  0  0  0  0  0  0  0  0
   21.9178   -3.4544    0.0000 H   0  0  0  0  0  0  0  0  0  0  0  0
   22.4830    0.7671    0.0000 H   0  0  0  0  0  0  0  0  0  0  0  0
   26.6387    0.4766    0.0000 H   0  0  0  0  0  0  0  0  0  0  0  0
   26.5465   -2.1198    0.0000 H   0  0  0  0  0  0  0  0  0  0  0  0
   24.2518   -3.3382    0.0000 H   0  0  0  0  0  0  0  0  0  0  0  0
   15.2575   -3.0189    0.0000 H   0  0  0  0  0  0  0  0  0  0  0  0
   14.0512   -4.6110    0.0000 H   0  0  0  0  0  0  0  0  0  0  0  0
   17.6699   -7.1824    0.0000 H   0  0  0  0  0  0  0  0  0  0  0  0
   15.7602   -7.4497    0.0000 H   0  0  0  0  0  0  0  0  0  0  0  0
   18.5339   -3.9837    0.0000 H   0  0  0  0  0  0  0  0  0  0  0  0
   16.9003   -4.0112    0.0000 H   0  0  0  0  0  0  0  0  0  0  0  0
   21.7018   -5.4579    0.0000 H   0  0  0  0  0  0  0  0  0  0  0  0
   20.5087   -3.3829    0.0000 H   0  0  0  0  0  0  0  0  0  0  0  0
   12.3844   -4.4900    0.0000 H   0  0  0  0  0  0  0  0  0  0  0  0
   10.7063   -5.5735    0.0000 H   0  0  0  0  0  0  0  0  0  0  0  0
   11.2377   -8.6744    0.0000 H   0  0  0  0  0  0  0  0  0  0  0  0
   15.1790   -8.3010    0.0000 H   0  0  0  0  0  0  0  0  0  0  0  0
   15.1333   -6.5171    0.0000 H   0  0  0  0  0  0  0  0  0  0  0  0
   13.6331   -5.9785    0.0000 H   0  0  0  0  0  0  0  0  0  0  0  0
   13.7885  -10.6185    0.0000 H   0  0  0  0  0  0  0  0  0  0  0  0
   11.9549  -10.0217    0.0000 H   0  0  0  0  0  0  0  0  0  0  0  0
   15.4299  -10.6055    0.0000 H   0  0  0  0  0  0  0  0  0  0  0  0
   16.1533   -8.8180    0.0000 H   0  0  0  0  0  0  0  0  0  0  0  0
   15.0648   -7.8193    0.0000 H   0  0  0  0  0  0  0  0  0  0  0  0
    9.1815   -4.8896    0.0000 H   0  0  0  0  0  0  0  0  0  0  0  0
    7.2340   -5.3338    0.0000 H   0  0  0  0  0  0  0  0  0  0  0  0
    8.1706   -9.6440    0.0000 H   0  0  0  0  0  0  0  0  0  0  0  0
    6.7185   -8.6069    0.0000 H   0  0  0  0  0  0  0  0  0  0  0  0
   11.0042   -7.5642    0.0000 H   0  0  0  0  0  0  0  0  0  0  0  0
    9.8022   -6.7057    0.0000 H   0  0  0  0  0  0  0  0  0  0  0  0
   10.5558  -11.0078    0.0000 H   0  0  0  0  0  0  0  0  0  0  0  0
    8.9881  -10.1554    0.0000 H   0  0  0  0  0  0  0  0  0  0  0  0
   13.3433   -9.4717    0.0000 H   0  0  0  0  0  0  0  0  0  0  0  0
   11.6390   -8.0899    0.0000 H   0  0  0  0  0  0  0  0  0  0  0  0
   14.0398  -11.1567    0.0000 H   0  0  0  0  0  0  0  0  0  0  0  0
   11.7548  -12.1719    0.0000 H   0  0  0  0  0  0  0  0  0  0  0  0
    6.0350   -4.1697    0.0000 H   0  0  0  0  0  0  0  0  0  0  0  0
    4.2296   -3.9701    0.0000 H   0  0  0  0  0  0  0  0  0  0  0  0
    2.4809   -7.1847    0.0000 H   0  0  0  0  0  0  0  0  0  0  0  0
    5.7262   -8.8854    0.0000 H   0  0  0  0  0  0  0  0  0  0  0  0
    6.8378   -7.4896    0.0000 H   0  0  0  0  0  0  0  0  0  0  0  0
    6.1910   -6.2073    0.0000 H   0  0  0  0  0  0  0  0  0  0  0  0
    3.1713   -9.7670    0.0000 H   0  0  0  0  0  0  0  0  0  0  0  0
    2.1503   -8.1311    0.0000 H   0  0  0  0  0  0  0  0  0  0  0  0
    4.4370  -10.8121    0.0000 H   0  0  0  0  0  0  0  0  0  0  0  0
    6.1402   -9.9077    0.0000 H   0  0  0  0  0  0  0  0  0  0  0  0
    5.9482   -8.4431    0.0000 H   0  0  0  0  0  0  0  0  0  0  0  0
    3.3246   -2.4171    0.0000 H   0  0  0  0  0  0  0  0  0  0  0  0
    1.5472   -1.5056    0.0000 H   0  0  0  0  0  0  0  0  0  0  0  0
   -0.3568   -5.5158    0.0000 H   0  0  0  0  0  0  0  0  0  0  0  0
   -0.9516   -3.6815    0.0000 H   0  0  0  0  0  0  0  0  0  0  0  0
    3.4597   -3.5033    0.0000 H   0  0  0  0  0  0  0  0  0  0  0  0
    5.2310   -6.5753    0.0000 H   0  0  0  0  0  0  0  0  0  0  0  0
    4.2065   -9.6163    0.0000 H   0  0  0  0  0  0  0  0  0  0  0  0
    1.8631  -11.2159    0.0000 H   0  0  0  0  0  0  0  0  0  0  0  0
   -0.8768   -9.9941    0.0000 H   0  0  0  0  0  0  0  0  0  0  0  0
   -1.1887   -7.0103    0.0000 H   0  0  0  0  0  0  0  0  0  0  0  0
    1.4227   -0.0205    0.0000 H   0  0  0  0  0  0  0  0  0  0  0  0
   -0.0716   -0.8323    0.0000 H   0  0  0  0  0  0  0  0  0  0  0  0
   -0.8179   -2.0440    0.0000 H   0  0  0  0  0  0  0  0  0  0  0  0
   -0.8420   -2.6301    0.0000 H   0  0  0  0  0  0  0  0  0  0  0  0
   -1.5792   -3.4337    0.0000 H   0  0  0  0  0  0  0  0  0  0  0  0
   -1.6813   -3.5668    0.0000 H   0  0  0  0  0  0  0  0  0  0  0  0
   -2.7589   -4.7247    0.0000 H   0  0  0  0  0  0  0  0  0  0  0  0
   -3.3900   -5.4846    0.0000 H   0  0  0  0  0  0  0  0  0  0  0  0
    1.5110    0.4694    0.0000 H   0  0  0  0  0  0  0  0  0  0  0  0
    1.4653    2.1026    0.0000 H   0  0  0  0  0  0  0  0  0  0  0  0
   -0.2229    2.6806    0.0000 H   0  0  0  0  0  0  0  0  0  0  0  0
    0.2950    3.8051    0.0000 H   0  0  0  0  0  0  0  0  0  0  0  0
   -0.2005    4.6976    0.0000 H   0  0  0  0  0  0  0  0  0  0  0  0
   -0.1874    7.7215    0.0000 H   0  0  0  0  0  0  0  0  0  0  0  0
   -1.9201    7.2949    0.0000 H   0  0  0  0  0  0  0  0  0  0  0  0
    2.0791    5.5394    0.0000 H   0  0  0  0  0  0  0  0  0  0  0  0
    0.6835    4.6898    0.0000 H   0  0  0  0  0  0  0  0  0  0  0  0
    3.9691    8.4782    0.0000 H   0  0  0  0  0  0  0  0  0  0  0  0
    3.7125    5.8928    0.0000 H   0  0  0  0  0  0  0  0  0  0  0  0
   -2.2121    8.6595    0.0000 H   0  0  0  0  0  0  0  0  0  0  0  0
   -3.0541    9.1761    0.0000 H   0  0  0  0  0  0  0  0  0  0  0  0
   -4.6155   11.5548    0.0000 H   0  0  0  0  0  0  0  0  0  0  0  0
   -5.8425   10.2592    0.0000 H   0  0  0  0  0  0  0  0  0  0  0  0
   -1.6049   12.9405    0.0000 H   0  0  0  0  0  0  0  0  0  0  0  0
   -4.1996   13.0739    0.0000 H   0  0  0  0  0  0  0  0  0  0  0  0
   -6.6503   11.1975    0.0000 H   0  0  0  0  0  0  0  0  0  0  0  0
   -7.6680   11.1175    0.0000 H   0  0  0  0  0  0  0  0  0  0  0  0
  -10.5397   12.2532    0.0000 H   0  0  0  0  0  0  0  0  0  0  0  0
  -10.7449   10.6323    0.0000 H   0  0  0  0  0  0  0  0  0  0  0  0
   -7.4867   13.5408    0.0000 H   0  0  0  0  0  0  0  0  0  0  0  0
   -7.2936   11.9184    0.0000 H   0  0  0  0  0  0  0  0  0  0  0  0
  -10.5300   14.8513    0.0000 H   0  0  0  0  0  0  0  0  0  0  0  0
  -10.6456   13.0706    0.0000 H   0  0  0  0  0  0  0  0  0  0  0  0
   -7.1297   15.1734    0.0000 H   0  0  0  0  0  0  0  0  0  0  0  0
   -9.3650   19.0789    0.0000 H   0  0  0  0  0  0  0  0  0  0  0  0
  -11.6199   17.7883    0.0000 H   0  0  0  0  0  0  0  0  0  0  0  0
  -11.6296   15.1902    0.0000 H   0  0  0  0  0  0  0  0  0  0  0  0
  -11.9317   10.9849    0.0000 H   0  0  0  0  0  0  0  0  0  0  0  0
  -12.7446   10.3674    0.0000 H   0  0  0  0  0  0  0  0  0  0  0  0
  -15.7745    9.7703    0.0000 H   0  0  0  0  0  0  0  0  0  0  0  0
  -15.0708    8.2957    0.0000 H   0  0  0  0  0  0  0  0  0  0  0  0
  -13.9022   12.5040    0.0000 H   0  0  0  0  0  0  0  0  0  0  0  0
  -12.8627   11.2436    0.0000 H   0  0  0  0  0  0  0  0  0  0  0  0
  -17.1709   11.9612    0.0000 H   0  0  0  0  0  0  0  0  0  0  0  0
  -16.3054   10.4006    0.0000 H   0  0  0  0  0  0  0  0  0  0  0  0
  -14.4845   14.0705    0.0000 H   0  0  0  0  0  0  0  0  0  0  0  0
  -18.4765   16.1475    0.0000 H   0  0  0  0  0  0  0  0  0  0  0  0
  -19.6757   13.8427    0.0000 H   0  0  0  0  0  0  0  0  0  0  0  0
  -18.2792   11.6518    0.0000 H   0  0  0  0  0  0  0  0  0  0  0  0
  -16.2598    7.9507    0.0000 H   0  0  0  0  0  0  0  0  0  0  0  0
  -16.6098    6.9918    0.0000 H   0  0  0  0  0  0  0  0  0  0  0  0
  -18.9037    5.0215    0.0000 H   0  0  0  0  0  0  0  0  0  0  0  0
  -17.4467    3.9913    0.0000 H   0  0  0  0  0  0  0  0  0  0  0  0
  -18.5595    8.2006    0.0000 H   0  0  0  0  0  0  0  0  0  0  0  0
  -17.1828    7.6650    0.0000 H   0  0  0  0  0  0  0  0  0  0  0  0
  -22.1975    7.6672    0.0000 H   0  0  0  0  0  0  0  0  0  0  0  0
  -21.0981    9.2515    0.0000 H   0  0  0  0  0  0  0  0  0  0  0  0
  -19.4351    8.6045    0.0000 H   0  0  0  0  0  0  0  0  0  0  0  0
  -18.2604    3.0583    0.0000 H   0  0  0  0  0  0  0  0  0  0  0  0
  -18.0364    2.0624    0.0000 H   0  0  0  0  0  0  0  0  0  0  0  0
  -18.7519   -0.9418    0.0000 H   0  0  0  0  0  0  0  0  0  0  0  0
  -17.1183   -0.9142    0.0000 H   0  0  0  0  0  0  0  0  0  0  0  0
  -20.3301    2.0252    0.0000 H   0  0  0  0  0  0  0  0  0  0  0  0
  -18.8824    2.3189    0.0000 H   0  0  0  0  0  0  0  0  0  0  0  0
  -21.3249   -1.3019    0.0000 H   0  0  0  0  0  0  0  0  0  0  0  0
  -19.5459   -1.1629    0.0000 H   0  0  0  0  0  0  0  0  0  0  0  0
  -23.0339    1.5368    0.0000 H   0  0  0  0  0  0  0  0  0  0  0  0
  -21.2850    1.8916    0.0000 H   0  0  0  0  0  0  0  0  0  0  0  0
  -24.4927    0.1723    0.0000 H   0  0  0  0  0  0  0  0  0  0  0  0
  -22.8944   -1.8759    0.0000 H   0  0  0  0  0  0  0  0  0  0  0  0
  -17.2984   -2.1391    0.0000 H   0  0  0  0  0  0  0  0  0  0  0  0
  -14.2423   -5.4113    0.0000 H   0  0  0  0  0  0  0  0  0  0  0  0
  -15.2958   -4.7215    0.0000 H   0  0  0  0  0  0  0  0  0  0  0  0
  -12.9084   -6.2779    0.0000 H   0  0  0  0  0  0  0  0  0  0  0  0
  -13.8902   -5.8032    0.0000 H   0  0  0  0  0  0  0  0  0  0  0  0
  -11.2514   -6.8797    0.0000 H   0  0  0  0  0  0  0  0  0  0  0  0
  -12.4462   -6.4823    0.0000 H   0  0  0  0  0  0  0  0  0  0  0  0
   -9.5104   -7.1570    0.0000 H   0  0  0  0  0  0  0  0  0  0  0  0
  -10.7588   -6.9929    0.0000 H   0  0  0  0  0  0  0  0  0  0  0  0
   -7.7484   -7.0997    0.0000 H   0  0  0  0  0  0  0  0  0  0  0  0
   -9.0053   -7.1749    0.0000 H   0  0  0  0  0  0  0  0  0  0  0  0
   -5.8944   -6.5860    0.0000 H   0  0  0  0  0  0  0  0  0  0  0  0
   -7.2491   -7.0218    0.0000 H   0  0  0  0  0  0  0  0  0  0  0  0
   -4.9250   -6.3959    0.0000 H   0  0  0  0  0  0  0  0  0  0  0  0
  -17.4617   -4.2375    0.0000 H   0  0  0  0  0  0  0  0  0  0  0  0
  -18.0220   -2.7027    0.0000 H   0  0  0  0  0  0  0  0  0  0  0  0
  -16.8479   -1.5665    0.0000 H   0  0  0  0  0  0  0  0  0  0  0  0
  -18.1507   -3.5388    0.0000 H   0  0  0  0  0  0  0  0  0  0  0  0
  -16.0570   -6.2066    0.0000 H   0  0  0  0  0  0  0  0  0  0  0  0
  -16.8219   -8.7920    0.0000 H   0  0  0  0  0  0  0  0  0  0  0  0
  -16.0451   -7.1855    0.0000 H   0  0  0  0  0  0  0  0  0  0  0  0
  -20.3058   -8.3262    0.0000 H   0  0  0  0  0  0  0  0  0  0  0  0
  -19.9359   -7.2396    0.0000 H   0  0  0  0  0  0  0  0  0  0  0  0
  -18.2607  -11.1327    0.0000 H   0  0  0  0  0  0  0  0  0  0  0  0
  -17.2939   -9.6329    0.0000 H   0  0  0  0  0  0  0  0  0  0  0  0
  -21.5546  -10.7735    0.0000 H   0  0  0  0  0  0  0  0  0  0  0  0
  -20.7778   -9.1670    0.0000 H   0  0  0  0  0  0  0  0  0  0  0  0
  -21.3523  -12.7607    0.0000 H   0  0  0  0  0  0  0  0  0  0  0  0
  -18.7544  -12.7293    0.0000 H   0  0  0  0  0  0  0  0  0  0  0  0
  -18.8334   -8.9982    0.0000 H   0  0  0  0  0  0  0  0  0  0  0  0
  -20.8163   -6.4454    0.0000 H   0  0  0  0  0  0  0  0  0  0  0  0
  -23.8904   -8.1498    0.0000 H   0  0  0  0  0  0  0  0  0  0  0  0
  -22.6261   -9.1847    0.0000 H   0  0  0  0  0  0  0  0  0  0  0  0
  -22.8266   -4.7997    0.0000 H   0  0  0  0  0  0  0  0  0  0  0  0
  -21.5624   -5.8346    0.0000 H   0  0  0  0  0  0  0  0  0  0  0  0
  -25.9456   -6.3264    0.0000 H   0  0  0  0  0  0  0  0  0  0  0  0
  -24.6365   -7.5390    0.0000 H   0  0  0  0  0  0  0  0  0  0  0  0
  -25.0199   -3.1449    0.0000 H   0  0  0  0  0  0  0  0  0  0  0  0
  -23.5727   -4.1889    0.0000 H   0  0  0  0  0  0  0  0  0  0  0  0
  -27.0121   -2.9990    0.0000 H   0  0  0  0  0  0  0  0  0  0  0  0
  -27.4322   -5.5629    0.0000 H   0  0  0  0  0  0  0  0  0  0  0  0
  -20.9949  -11.9050    0.0000 H   0  0  0  0  0  0  0  0  0  0  0  0
  1  2  1  0
  2  3  1  0
  3  4  2  0
  4  5  1  0
  5  6  2  0
  6  7  1  0
  7  8  2  0
  7  9  1  0
  9 10  1  0
 10 11  1  0
 11 12  2  0
  9 13  1  0
 13 14  1  0
 14 15  2  0
 15 16  1  0
 16 17  2  0
 17 18  1  0
 16 19  1  0
 14 20  1  0
 20 21  1  0
 21 22  2  0
 22 23  1  0
 23 24  2  0
 24 25  1  0
 25 26  2  0
 25 27  1  0
  1 28  2  0
  1 29  1  0
 29 30  1  0
 30 31  1  0
 31 32  1  0
 32 33  2  0
 32 34  1  0
 34 35  1  0
 35 36  1  0
 36 37  1  0
 37 38  1  0
 38 39  1  0
 39 40  1  0
 40 41  2  3
 40 42  1  0
 35 43  1  0
 43 44  2  0
 43 45  1  0
 45 46  1  0
 46 47  1  0
 47 48  1  0
 48 49  1  0
 49 50  1  0
 49 51  2  0
 46 52  1  0
 52 53  2  0
 52 54  1  0
 54 55  1  0
 55 56  1  0
 56 57  1  0
 56 58  1  0
 58 59  1  0
 55 60  1  0
 60 61  2  0
 60 62  1  0
 62 63  1  0
 63 64  1  0
 64 65  1  0
 65 66  1  0
 66 67  1  0
 67 68  1  0
 63 69  1  0
 69 70  2  0
 69 71  1  0
 71 72  1  0
 72 73  1  0
 73 74  1  0
 73 75  1  0
 75 76  1  0
 72 77  1  0
 77 78  2  0
 77 79  1  0
 79 80  1  0
 80 81  1  0
 81 82  1  0
 82 83  2  0
 83 84  1  0
 84 85  1  0
 85 86  2  0
 86 87  1  0
 87 88  2  0
 88 89  1  0
 89 90  2  0
 80 91  1  0
 91 92  2  0
 91 93  1  0
 94 93  1  6
 94 95  1  0
 95 96  1  0
 96 97  1  0
 97 98  1  0
 94 99  1  0
 94100  1  0
100101  2  0
100102  1  0
102103  1  0
103104  1  0
104105  1  0
105106  1  0
106107  1  0
106108  2  0
103109  1  0
109110  2  0
109111  1  0
111112  1  0
112113  1  0
113114  1  0
114115  1  0
114116  2  0
112117  1  0
117118  2  0
117119  1  0
119120  1  0
120121  1  0
121122  1  0
122123  1  0
123124  1  0
124125  1  0
125126  2  3
125127  1  0
120128  1  0
128129  2  0
128130  1  0
130131  1  0
131132  1  0
132133  1  0
133134  1  0
134135  1  0
135136  1  0
136137  2  3
136138  1  0
131139  1  0
139140  2  0
139141  1  0
141142  1  0
142143  1  0
143144  1  0
144145  1  0
145146  1  0
142147  1  0
147148  2  0
147149  1  0
149150  1  0
150151  1  0
151152  1  0
152153  1  0
153154  1  0
154155  1  0
150156  1  0
156157  2  0
156158  1  0
158159  1  0
159160  1  0
160161  1  0
161162  1  0
162163  1  0
163164  1  0
164165  1  0
165166  1  0
159167  1  0
159168  1  1
168169  2  0
168170  1  0
170171  1  0
171172  1  0
172173  1  0
173174  1  0
174175  1  0
175176  1  0
171177  1  0
177178  2  0
177179  1  0
179180  1  0
180181  1  0
181182  1  0
182183  1  0
183184  1  0
184185  1  0
180186  1  0
186187  2  0
186188  1  0
  8  3  1  0
 90 82  1  0
 11  6  1  0
 90 85  1  0
 98166  2  0
 18 13  2  0
 22  9  1  0
 26 21  1  0
  2189  1  0
  4190  1  0
  5191  1  0
  8192  1  0
 15193  1  0
 17194  1  0
 18195  1  0
 19196  1  0
 23197  1  0
 24198  1  0
 26199  1  0
 27200  1  0
 29201  1  0
 30202  1  0
 30203  1  0
 31204  1  0
 31205  1  0
 34206  1  0
 35207  1  1
 36208  1  0
 36209  1  0
 37210  1  0
 37211  1  0
 38212  1  0
 38213  1  0
 39214  1  0
 41215  1  0
 42216  1  0
 42217  1  0
 45218  1  0
 46219  1  1
 47220  1  0
 47221  1  0
 48222  1  0
 48223  1  0
 50224  1  0
 50225  1  0
 54226  1  0
 55227  1  1
 56228  1  6
 57229  1  0
 57230  1  0
 57231  1  0
 58232  1  0
 58233  1  0
 59234  1  0
 59235  1  0
 59236  1  0
 62237  1  0
 63238  1  1
 64239  1  0
 64240  1  0
 65241  1  0
 65242  1  0
 66243  1  0
 66244  1  0
 67245  1  0
 67246  1  0
 68247  1  0
 68248  1  0
 71249  1  0
 72250  1  1
 73251  1  6
 74252  1  0
 74253  1  0
 74254  1  0
 75255  1  0
 75256  1  0
 76257  1  0
 76258  1  0
 76259  1  0
 79260  1  0
 80261  1  1
 81262  1  0
 81263  1  0
 83264  1  0
 84265  1  0
 86266  1  0
 87267  1  0
 88268  1  0
 89269  1  0
 93270  1  0
 95271  1  0
 95272  1  0
 96273  1  0
 96274  1  0
 97275  1  0
 97276  1  0
 98277  1  0
 99278  1  0
 99279  1  0
 99280  1  0
102281  1  0
103282  1  6
104283  1  0
104284  1  0
105285  1  0
105286  1  0
107287  1  0
107288  1  0
111289  1  0
112290  1  6
113291  1  0
113292  1  0
115293  1  0
115294  1  0
119295  1  0
120296  1  6
121297  1  0
121298  1  0
122299  1  0
122300  1  0
123301  1  0
123302  1  0
124303  1  0
126304  1  0
127305  1  0
127306  1  0
130307  1  0
131308  1  6
132309  1  0
132310  1  0
133311  1  0
133312  1  0
134313  1  0
134314  1  0
135315  1  0
137316  1  0
138317  1  0
138318  1  0
141319  1  0
142320  1  6
143321  1  0
143322  1  0
144323  1  0
144324  1  0
146325  1  0
146326  1  0
146327  1  0
149328  1  0
150329  1  6
151330  1  0
151331  1  0
152332  1  0
152333  1  0
153334  1  0
153335  1  0
154336  1  0
154337  1  0
155338  1  0
155339  1  0
158340  1  0
160341  1  0
160342  1  0
161343  1  0
161344  1  0
162345  1  0
162346  1  0
163347  1  0
163348  1  0
164349  1  0
164350  1  0
165351  1  0
165352  1  0
166353  1  0
167354  1  0
167355  1  0
167356  1  0
170357  1  0
171358  1  1
172359  1  0
172360  1  0
173361  1  0
173362  1  0
174363  1  0
174364  1  0
175365  1  0
175366  1  0
176367  1  0
176368  1  0
179369  1  0
180370  1  6
181371  1  0
181372  1  0
182373  1  0
182374  1  0
183375  1  0
183376  1  0
184377  1  0
184378  1  0
185379  1  0
185380  1  0
188381  1  0
M  END
