
     RDKit          2D

394400  0  0  0  0  0  0  0  0999 V2000
   36.7966   -1.2238    0.0000 C   0  0  0  0  0  0  0  0  0  0  0  0
   38.1098   -0.4989    0.0000 N   0  0  0  0  0  0  0  0  0  0  0  0
   39.3942   -1.2737    0.0000 C   0  0  0  0  0  0  0  0  0  0  0  0
   39.3654   -2.7734    0.0000 C   0  0  0  0  0  0  0  0  0  0  0  0
   40.6498   -3.5482    0.0000 C   0  0  0  0  0  0  0  0  0  0  0  0
   41.9630   -2.8232    0.0000 C   0  0  0  0  0  0  0  0  0  0  0  0
   41.9918   -1.3235    0.0000 C   0  0  0  0  0  0  0  0  0  0  0  0
   40.7074   -0.5487    0.0000 C   0  0  0  0  0  0  0  0  0  0  0  0
   43.4270   -0.8874    0.0000 C   0  0  0  0  0  0  0  0  0  0  0  0
   44.2852   -2.1176    0.0000 O   0  0  0  0  0  0  0  0  0  0  0  0
   43.3804   -3.3140    0.0000 C   0  0  0  0  0  0  0  0  0  0  0  0
   43.8165   -4.7492    0.0000 O   0  0  0  0  0  0  0  0  0  0  0  0
   44.8999   -0.6038    0.0000 C   0  0  0  0  0  0  0  0  0  0  0  0
   45.3907    0.8137    0.0000 C   0  0  0  0  0  0  0  0  0  0  0  0
   46.8637    1.0973    0.0000 C   0  0  0  0  0  0  0  0  0  0  0  0
   47.8458   -0.0364    0.0000 C   0  0  0  0  0  0  0  0  0  0  0  0
   47.3550   -1.4539    0.0000 C   0  0  0  0  0  0  0  0  0  0  0  0
   45.8820   -1.7375    0.0000 C   0  0  0  0  0  0  0  0  0  0  0  0
   49.3187    0.2472    0.0000 O   0  0  0  0  0  0  0  0  0  0  0  0
   44.4086    1.9474    0.0000 O   0  0  0  0  0  0  0  0  0  0  0  0
   42.9357    1.6638    0.0000 C   0  0  0  0  0  0  0  0  0  0  0  0
   42.4449    0.2463    0.0000 C   0  0  0  0  0  0  0  0  0  0  0  0
   41.2010    0.6241    0.0000 C   0  0  0  0  0  0  0  0  0  0  0  0
   40.6772    1.2288    0.0000 C   0  0  0  0  0  0  0  0  0  0  0  0
   40.9389    1.9848    0.0000 C   0  0  0  0  0  0  0  0  0  0  0  0
   41.7245    2.1361    0.0000 C   0  0  0  0  0  0  0  0  0  0  0  0
   39.4985    3.6476    0.0000 O   0  0  0  0  0  0  0  0  0  0  0  0
   36.7678   -2.7235    0.0000 S   0  0  0  0  0  0  0  0  0  0  0  0
   35.5122   -0.4490    0.0000 N   0  0  0  0  0  0  0  0  0  0  0  0
   34.1990   -1.1740    0.0000 C   0  0  0  0  0  0  0  0  0  0  0  0
   32.9146   -0.3992    0.0000 C   0  0  0  0  0  0  0  0  0  0  0  0
   31.6014   -1.1241    0.0000 C   0  0  0  0  0  0  0  0  0  0  0  0
   31.5726   -2.6239    0.0000 O   0  0  0  0  0  0  0  0  0  0  0  0
   30.3170   -0.3494    0.0000 N   0  0  0  0  0  0  0  0  0  0  0  0
   29.0038   -1.0743    0.0000 C   0  0  0  0  0  0  0  0  0  0  0  0
   28.0177   -2.2047    0.0000 C   0  0  0  0  0  0  0  0  0  0  0  0
   27.4778   -3.6041    0.0000 O   0  0  0  0  0  0  0  0  0  0  0  0
   26.5216   -2.0975    0.0000 C   0  0  0  0  0  0  0  0  0  0  0  0
   27.7194   -0.2995    0.0000 C   0  0  0  0  0  0  0  0  0  0  0  0
   27.7481    1.2002    0.0000 O   0  0  0  0  0  0  0  0  0  0  0  0
   26.4062   -1.0245    0.0000 N   0  0  0  0  0  0  0  0  0  0  0  0
   25.1218   -0.2497    0.0000 C   0  0  0  0  0  0  0  0  0  0  0  0
   24.1798    0.9177    0.0000 C   0  0  0  0  0  0  0  0  0  0  0  0
   24.7198    2.3171    0.0000 C   0  0  0  0  0  0  0  0  0  0  0  0
   23.7778    3.4845    0.0000 C   0  0  0  0  0  0  0  0  0  0  0  0
   24.3178    4.8839    0.0000 N   0  0  0  0  0  0  0  0  0  0  0  0
   23.3758    6.0512    0.0000 C   0  0  0  0  0  0  0  0  0  0  0  0
   23.9158    7.4507    0.0000 N   0  0  0  0  0  0  0  0  0  0  0  0
   21.8939    5.8192    0.0000 N   0  0  0  0  0  0  0  0  0  0  0  0
   23.8086   -0.9746    0.0000 C   0  0  0  0  0  0  0  0  0  0  0  0
   23.7798   -2.4743    0.0000 O   0  0  0  0  0  0  0  0  0  0  0  0
   22.5242   -0.1998    0.0000 N   0  0  0  0  0  0  0  0  0  0  0  0
   21.2110   -0.9248    0.0000 C   0  0  0  0  0  0  0  0  0  0  0  0
   20.2249   -2.0551    0.0000 C   0  0  0  0  0  0  0  0  0  0  0  0
   18.7530   -1.7664    0.0000 C   0  0  0  0  0  0  0  0  0  0  0  0
   17.7669   -2.8967    0.0000 C   0  0  0  0  0  0  0  0  0  0  0  0
   16.2708   -2.7896    0.0000 N   0  0  0  0  0  0  0  0  0  0  0  0
   18.2528   -4.3159    0.0000 O   0  0  0  0  0  0  0  0  0  0  0  0
   19.9266   -0.1500    0.0000 C   0  0  0  0  0  0  0  0  0  0  0  0
   19.9553    1.3497    0.0000 O   0  0  0  0  0  0  0  0  0  0  0  0
   18.6134   -0.8749    0.0000 N   0  0  0  0  0  0  0  0  0  0  0  0
   17.3290   -0.1002    0.0000 C   0  0  0  0  0  0  0  0  0  0  0  0
   16.3870    1.0672    0.0000 C   0  0  0  0  0  0  0  0  0  0  0  0
   16.0158   -0.8251    0.0000 C   0  0  0  0  0  0  0  0  0  0  0  0
   15.8617   -1.9077    0.0000 O   0  0  0  0  0  0  0  0  0  0  0  0
   14.7314   -0.0503    0.0000 N   0  0  0  0  0  0  0  0  0  0  0  0
   13.4182   -0.7753    0.0000 C   0  0  0  0  0  0  0  0  0  0  0  0
   12.4321   -1.9056    0.0000 C   0  0  0  0  0  0  0  0  0  0  0  0
   10.9602   -1.6169    0.0000 C   0  0  0  0  0  0  0  0  0  0  0  0
    9.9742   -2.7472    0.0000 C   0  0  0  0  0  0  0  0  0  0  0  0
    8.5022   -2.4585    0.0000 N   0  0  0  0  0  0  0  0  0  0  0  0
    7.5162   -3.5888    0.0000 C   0  0  0  0  0  0  0  0  0  0  0  0
    6.0904   -3.1228    0.0000 N   0  0  0  0  0  0  0  0  0  0  0  0
    8.0021   -5.0079    0.0000 N   0  0  0  0  0  0  0  0  0  0  0  0
   12.1338   -0.0005    0.0000 C   0  0  0  0  0  0  0  0  0  0  0  0
   12.1626    1.4992    0.0000 O   0  0  0  0  0  0  0  0  0  0  0  0
   10.8206   -0.7254    0.0000 N   0  0  0  0  0  0  0  0  0  0  0  0
    9.5362    0.0494    0.0000 C   0  0  0  0  0  0  0  0  0  0  0  0
    8.5942    1.2167    0.0000 C   0  0  0  0  0  0  0  0  0  0  0  0
    9.1342    2.6161    0.0000 C   0  0  0  0  0  0  0  0  0  0  0  0
    8.1922    3.7835    0.0000 C   0  0  0  0  0  0  0  0  0  0  0  0
    8.7322    5.1829    0.0000 N   0  0  0  0  0  0  0  0  0  0  0  0
    7.7902    6.3503    0.0000 C   0  0  0  0  0  0  0  0  0  0  0  0
    8.3302    7.7497    0.0000 N   0  0  0  0  0  0  0  0  0  0  0  0
    6.3083    6.1182    0.0000 N   0  0  0  0  0  0  0  0  0  0  0  0
    8.2230   -0.6756    0.0000 C   0  0  0  0  0  0  0  0  0  0  0  0
    7.9381   -1.7313    0.0000 O   0  0  0  0  0  0  0  0  0  0  0  0
    6.9386    0.0992    0.0000 N   0  0  0  0  0  0  0  0  0  0  0  0
    5.6254   -0.6257    0.0000 C   0  0  0  0  0  0  0  0  0  0  0  0
    4.6393   -1.7561    0.0000 C   0  0  0  0  0  0  0  0  0  0  0  0
    3.1674   -1.4673    0.0000 C   0  0  0  0  0  0  0  0  0  0  0  0
    2.1814   -2.5977    0.0000 N   0  0  0  0  0  0  0  0  0  0  0  0
    2.7344   -0.7981    0.0000 O   0  0  0  0  0  0  0  0  0  0  0  0
    4.3410    0.1490    0.0000 C   0  0  0  0  0  0  0  0  0  0  0  0
    4.3698    1.6488    0.0000 O   0  0  0  0  0  0  0  0  0  0  0  0
    3.0278   -0.5759    0.0000 N   0  0  0  0  0  0  0  0  0  0  0  0
    1.7434    0.1989    0.0000 C   0  0  0  0  0  0  0  0  0  0  0  0
    0.8014    1.3662    0.0000 C   0  0  0  0  0  0  0  0  0  0  0  0
   -0.6805    1.1341    0.0000 C   0  0  0  0  0  0  0  0  0  0  0  0
   -1.6225    2.3015    0.0000 C   0  0  0  0  0  0  0  0  0  0  0  0
   -3.1044    2.0694    0.0000 N   0  0  0  0  0  0  0  0  0  0  0  0
   -4.0464    3.2368    0.0000 C   0  0  0  0  0  0  0  0  0  0  0  0
   -5.4890    2.8258    0.0000 N   0  0  0  0  0  0  0  0  0  0  0  0
   -3.5064    4.6362    0.0000 N   0  0  0  0  0  0  0  0  0  0  0  0
    0.4302   -0.5261    0.0000 C   0  0  0  0  0  0  0  0  0  0  0  0
    0.2188   -2.0111    0.0000 O   0  0  0  0  0  0  0  0  0  0  0  0
   -0.8542    0.2487    0.0000 N   0  0  0  0  0  0  0  0  0  0  0  0
   -2.1674   -0.4762    0.0000 C   0  0  0  0  0  0  0  0  0  0  0  0
   -3.1534   -1.6066    0.0000 C   0  0  0  0  0  0  0  0  0  0  0  0
   -4.6254   -1.3178    0.0000 C   0  0  0  0  0  0  0  0  0  0  0  0
   -5.6114   -2.4482    0.0000 C   0  0  0  0  0  0  0  0  0  0  0  0
   -7.0834   -2.1594    0.0000 N   0  0  0  0  0  0  0  0  0  0  0  0
   -8.0694   -3.2898    0.0000 C   0  0  0  0  0  0  0  0  0  0  0  0
   -9.4952   -2.8238    0.0000 N   0  0  0  0  0  0  0  0  0  0  0  0
   -7.5835   -4.7089    0.0000 N   0  0  0  0  0  0  0  0  0  0  0  0
   -3.4518    0.2986    0.0000 C   0  0  0  0  0  0  0  0  0  0  0  0
   -3.7868    1.7607    0.0000 O   0  0  0  0  0  0  0  0  0  0  0  0
   -4.7650   -0.4264    0.0000 N   0  0  0  0  0  0  0  0  0  0  0  0
   -6.0494    0.3484    0.0000 C   0  0  0  0  0  0  0  0  0  0  0  0
   -6.9914    1.5157    0.0000 C   0  0  0  0  0  0  0  0  0  0  0  0
   -8.4733    1.2837    0.0000 C   0  0  0  0  0  0  0  0  0  0  0  0
   -9.4153    2.4510    0.0000 C   0  0  0  0  0  0  0  0  0  0  0  0
  -10.8972    2.2189    0.0000 N   0  0  0  0  0  0  0  0  0  0  0  0
  -11.8392    3.3863    0.0000 C   0  0  0  0  0  0  0  0  0  0  0  0
  -13.2818    2.9753    0.0000 N   0  0  0  0  0  0  0  0  0  0  0  0
  -11.2992    4.7857    0.0000 N   0  0  0  0  0  0  0  0  0  0  0  0
   -7.3626   -0.3766    0.0000 C   0  0  0  0  0  0  0  0  0  0  0  0
   -7.7534   -1.8247    0.0000 O   0  0  0  0  0  0  0  0  0  0  0  0
   -8.6470    0.3982    0.0000 N   0  0  0  0  0  0  0  0  0  0  0  0
   -9.9602   -0.3267    0.0000 C   0  0  0  0  0  0  0  0  0  0  0  0
  -10.9462   -1.4571    0.0000 C   0  0  0  0  0  0  0  0  0  0  0  0
  -12.4182   -1.1683    0.0000 C   0  0  0  0  0  0  0  0  0  0  0  0
  -13.4042   -2.2987    0.0000 C   0  0  0  0  0  0  0  0  0  0  0  0
  -14.8762   -2.0099    0.0000 N   0  0  0  0  0  0  0  0  0  0  0  0
  -15.8622   -3.1403    0.0000 C   0  0  0  0  0  0  0  0  0  0  0  0
  -17.2880   -2.6742    0.0000 N   0  0  0  0  0  0  0  0  0  0  0  0
  -15.3763   -4.5594    0.0000 N   0  0  0  0  0  0  0  0  0  0  0  0
  -11.2446    0.4481    0.0000 C   0  0  0  0  0  0  0  0  0  0  0  0
  -11.5796    1.9102    0.0000 O   0  0  0  0  0  0  0  0  0  0  0  0
  -12.5578   -0.2769    0.0000 N   0  0  0  0  0  0  0  0  0  0  0  0
  -13.8422    0.4979    0.0000 C   0  0  0  0  0  0  0  0  0  0  0  0
  -14.7842    1.6653    0.0000 C   0  0  0  0  0  0  0  0  0  0  0  0
  -16.2661    1.4332    0.0000 C   0  0  0  0  0  0  0  0  0  0  0  0
  -16.9494    0.0978    0.0000 C   0  0  0  0  0  0  0  0  0  0  0  0
  -18.4305    0.3351    0.0000 N   0  0  0  0  0  0  0  0  0  0  0  0
  -18.6626    1.8170    0.0000 C   0  0  0  0  0  0  0  0  0  0  0  0
  -19.9192    2.6361    0.0000 C   0  0  0  0  0  0  0  0  0  0  0  0
  -19.8381    4.1339    0.0000 C   0  0  0  0  0  0  0  0  0  0  0  0
  -18.5004    4.8126    0.0000 C   0  0  0  0  0  0  0  0  0  0  0  0
  -17.2438    3.9935    0.0000 C   0  0  0  0  0  0  0  0  0  0  0  0
  -17.3249    2.4957    0.0000 C   0  0  0  0  0  0  0  0  0  0  0  0
  -15.1554   -0.2270    0.0000 C   0  0  0  0  0  0  0  0  0  0  0  0
  -15.5462   -1.6752    0.0000 O   0  0  0  0  0  0  0  0  0  0  0  0
  -16.4398    0.5477    0.0000 N   0  0  0  0  0  0  0  0  0  0  0  0
  -17.7530   -0.1772    0.0000 C   0  0  0  0  0  0  0  0  0  0  0  0
  -18.7390   -1.3076    0.0000 C   0  0  0  0  0  0  0  0  0  0  0  0
  -20.2110   -1.0188    0.0000 C   0  0  0  0  0  0  0  0  0  0  0  0
  -21.1970   -2.1492    0.0000 C   0  0  0  0  0  0  0  0  0  0  0  0
  -22.6690   -1.8604    0.0000 N   0  0  0  0  0  0  0  0  0  0  0  0
  -23.6550   -2.9908    0.0000 C   0  0  0  0  0  0  0  0  0  0  0  0
  -25.0808   -2.5247    0.0000 N   0  0  0  0  0  0  0  0  0  0  0  0
  -23.1691   -4.4099    0.0000 N   0  0  0  0  0  0  0  0  0  0  0  0
  -19.0374    0.5976    0.0000 C   0  0  0  0  0  0  0  0  0  0  0  0
  -19.3724    2.0597    0.0000 O   0  0  0  0  0  0  0  0  0  0  0  0
  -20.3506   -0.1274    0.0000 N   0  0  0  0  0  0  0  0  0  0  0  0
  -21.6350    0.6474    0.0000 C   0  0  0  0  0  0  0  0  0  0  0  0
  -22.5770    1.8148    0.0000 C   0  0  0  0  0  0  0  0  0  0  0  0
  -24.0589    1.5827    0.0000 C   0  0  0  0  0  0  0  0  0  0  0  0
  -25.0009    2.7500    0.0000 C   0  0  0  0  0  0  0  0  0  0  0  0
  -26.5000    2.7003    0.0000 O   0  0  0  0  0  0  0  0  0  0  0  0
  -24.4609    4.1495    0.0000 O   0  0  0  0  0  0  0  0  0  0  0  0
  -22.9482   -0.0775    0.0000 C   0  0  0  0  0  0  0  0  0  0  0  0
  -23.3390   -1.5257    0.0000 O   0  0  0  0  0  0  0  0  0  0  0  0
  -24.2326    0.6973    0.0000 N   0  0  0  0  0  0  0  0  0  0  0  0
  -25.5458   -0.0277    0.0000 C   0  0  0  0  0  0  0  0  0  0  0  0
  -26.5318   -1.1580    0.0000 C   0  0  0  0  0  0  0  0  0  0  0  0
  -28.0038   -0.8693    0.0000 C   0  0  0  0  0  0  0  0  0  0  0  0
  -28.9898   -1.9996    0.0000 C   0  0  0  0  0  0  0  0  0  0  0  0
  -30.4618   -1.7109    0.0000 N   0  0  0  0  0  0  0  0  0  0  0  0
  -31.4478   -2.8412    0.0000 C   0  0  0  0  0  0  0  0  0  0  0  0
  -32.8736   -2.3752    0.0000 N   0  0  0  0  0  0  0  0  0  0  0  0
  -30.9619   -4.2604    0.0000 N   0  0  0  0  0  0  0  0  0  0  0  0
  -26.8302    0.7471    0.0000 C   0  0  0  0  0  0  0  0  0  0  0  0
  -26.9844    2.2392    0.0000 O   0  0  0  0  0  0  0  0  0  0  0  0
  -28.1434    0.0222    0.0000 N   0  0  0  0  0  0  0  0  0  0  0  0
  -29.4278    0.7969    0.0000 C   0  0  0  0  0  0  0  0  0  0  0  0
  -30.3698    1.9643    0.0000 C   0  0  0  0  0  0  0  0  0  0  0  0
  -29.8298    3.3637    0.0000 C   0  0  0  0  0  0  0  0  0  0  0  0
  -30.7717    4.5311    0.0000 C   0  0  0  0  0  0  0  0  0  0  0  0
  -30.2318    5.9305    0.0000 N   0  0  0  0  0  0  0  0  0  0  0  0
  -32.2537    4.2990    0.0000 O   0  0  0  0  0  0  0  0  0  0  0  0
  -30.7410    0.0720    0.0000 C   0  0  0  0  0  0  0  0  0  0  0  0
  -31.1318   -1.3762    0.0000 O   0  0  0  0  0  0  0  0  0  0  0  0
  -32.0254    0.8468    0.0000 N   0  0  0  0  0  0  0  0  0  0  0  0
  -33.3386    0.1218    0.0000 C   0  0  0  0  0  0  0  0  0  0  0  0
  -34.3246   -1.0085    0.0000 C   0  0  0  0  0  0  0  0  0  0  0  0
  -35.7966   -0.7198    0.0000 C   0  0  0  0  0  0  0  0  0  0  0  0
  -36.7826   -1.8501    0.0000 C   0  0  0  0  0  0  0  0  0  0  0  0
  -38.2546   -1.5614    0.0000 N   0  0  0  0  0  0  0  0  0  0  0  0
  -39.2406   -2.6917    0.0000 C   0  0  0  0  0  0  0  0  0  0  0  0
  -40.7125   -2.4030    0.0000 N   0  0  0  0  0  0  0  0  0  0  0  0
  -38.7547   -4.1108    0.0000 N   0  0  0  0  0  0  0  0  0  0  0  0
  -34.6230    0.8966    0.0000 C   0  0  0  0  0  0  0  0  0  0  0  0
  -36.0148    0.3372    0.0000 O   0  0  0  0  0  0  0  0  0  0  0  0
  -34.5942    2.3963    0.0000 O   0  0  0  0  0  0  0  0  0  0  0  0
   37.9555    0.9932    0.0000 H   0  0  0  0  0  0  0  0  0  0  0  0
   38.0522   -3.4983    0.0000 H   0  0  0  0  0  0  0  0  0  0  0  0
   40.6210   -5.0479    0.0000 H   0  0  0  0  0  0  0  0  0  0  0  0
   40.3724    0.9134    0.0000 H   0  0  0  0  0  0  0  0  0  0  0  0
   47.3545    2.5148    0.0000 H   0  0  0  0  0  0  0  0  0  0  0  0
   48.3371   -2.5876    0.0000 H   0  0  0  0  0  0  0  0  0  0  0  0
   45.3912   -3.1550    0.0000 H   0  0  0  0  0  0  0  0  0  0  0  0
   50.3008   -0.8865    0.0000 H   0  0  0  0  0  0  0  0  0  0  0  0
   40.4811   -1.4548    0.0000 H   0  0  0  0  0  0  0  0  0  0  0  0
   38.4933    0.9944    0.0000 H   0  0  0  0  0  0  0  0  0  0  0  0
   42.4443    4.2150    0.0000 H   0  0  0  0  0  0  0  0  0  0  0  0
   39.9893    5.0651    0.0000 H   0  0  0  0  0  0  0  0  0  0  0  0
   35.5409    1.0507    0.0000 H   0  0  0  0  0  0  0  0  0  0  0  0
   33.2129   -2.3043    0.0000 H   0  0  0  0  0  0  0  0  0  0  0  0
   35.1409   -2.3413    0.0000 H   0  0  0  0  0  0  0  0  0  0  0  0
   31.9726    0.7682    0.0000 H   0  0  0  0  0  0  0  0  0  0  0  0
   33.9006    0.7312    0.0000 H   0  0  0  0  0  0  0  0  0  0  0  0
   30.3457    1.1504    0.0000 H   0  0  0  0  0  0  0  0  0  0  0  0
   29.9457   -2.2417    0.0000 H   0  0  0  0  0  0  0  0  0  0  0  0
   29.3021   -2.9794    0.0000 H   0  0  0  0  0  0  0  0  0  0  0  0
   28.4197   -4.7714    0.0000 H   0  0  0  0  0  0  0  0  0  0  0  0
   25.5597   -3.0463    0.0000 H   0  0  0  0  0  0  0  0  0  0  0  0
   25.2614   -1.1411    0.0000 H   0  0  0  0  0  0  0  0  0  0  0  0
   26.3654   -0.4268    0.0000 H   0  0  0  0  0  0  0  0  0  0  0  0
   26.1948   -2.5095    0.0000 H   0  0  0  0  0  0  0  0  0  0  0  0
   26.2382    0.7521    0.0000 H   0  0  0  0  0  0  0  0  0  0  0  0
   22.8954    1.6925    0.0000 H   0  0  0  0  0  0  0  0  0  0  0  0
   22.9495    0.0595    0.0000 H   0  0  0  0  0  0  0  0  0  0  0  0
   25.7058    3.4475    0.0000 H   0  0  0  0  0  0  0  0  0  0  0  0
   26.0891    1.7047    0.0000 H   0  0  0  0  0  0  0  0  0  0  0  0
   22.4934    4.2592    0.0000 H   0  0  0  0  0  0  0  0  0  0  0  0
   22.6613    2.4827    0.0000 H   0  0  0  0  0  0  0  0  0  0  0  0
   25.7997    5.1160    0.0000 H   0  0  0  0  0  0  0  0  0  0  0  0
   22.9738    8.6180    0.0000 H   0  0  0  0  0  0  0  0  0  0  0  0
   20.9519    6.9865    0.0000 H   0  0  0  0  0  0  0  0  0  0  0  0
   21.3539    4.4197    0.0000 H   0  0  0  0  0  0  0  0  0  0  0  0
   22.3699    1.2922    0.0000 H   0  0  0  0  0  0  0  0  0  0  0  0
   22.1529   -2.0921    0.0000 H   0  0  0  0  0  0  0  0  0  0  0  0
   19.6850   -3.4546    0.0000 H   0  0  0  0  0  0  0  0  0  0  0  0
   21.5093   -2.8299    0.0000 H   0  0  0  0  0  0  0  0  0  0  0  0
   17.4686   -0.9916    0.0000 H   0  0  0  0  0  0  0  0  0  0  0  0
   18.5726   -0.2773    0.0000 H   0  0  0  0  0  0  0  0  0  0  0  0
   15.3090   -3.7383    0.0000 H   0  0  0  0  0  0  0  0  0  0  0  0
   15.4355   -1.3481    0.0000 H   0  0  0  0  0  0  0  0  0  0  0  0
   18.2226   -2.3231    0.0000 H   0  0  0  0  0  0  0  0  0  0  0  0
   18.3150    1.0302    0.0000 H   0  0  0  0  0  0  0  0  0  0  0  0
   16.9270    2.4666    0.0000 H   0  0  0  0  0  0  0  0  0  0  0  0
   15.2066    1.9928    0.0000 H   0  0  0  0  0  0  0  0  0  0  0  0
   15.1567    0.2090    0.0000 H   0  0  0  0  0  0  0  0  0  0  0  0
   14.5771    1.4417    0.0000 H   0  0  0  0  0  0  0  0  0  0  0  0
   14.3601   -1.9426    0.0000 H   0  0  0  0  0  0  0  0  0  0  0  0
   12.0668   -3.3604    0.0000 H   0  0  0  0  0  0  0  0  0  0  0  0
   13.7166   -2.6804    0.0000 H   0  0  0  0  0  0  0  0  0  0  0  0
    9.6758   -0.8421    0.0000 H   0  0  0  0  0  0  0  0  0  0  0  0
   10.7798   -0.1277    0.0000 H   0  0  0  0  0  0  0  0  0  0  0  0
    9.4342   -4.1467    0.0000 H   0  0  0  0  0  0  0  0  0  0  0  0
   11.1545   -3.6728    0.0000 H   0  0  0  0  0  0  0  0  0  0  0  0
    7.6874   -1.1991    0.0000 H   0  0  0  0  0  0  0  0  0  0  0  0
    5.0582   -4.4304    0.0000 H   0  0  0  0  0  0  0  0  0  0  0  0
    7.0160   -6.1383    0.0000 H   0  0  0  0  0  0  0  0  0  0  0  0
    9.4740   -5.2967    0.0000 H   0  0  0  0  0  0  0  0  0  0  0  0
   10.4298   -2.1736    0.0000 H   0  0  0  0  0  0  0  0  0  0  0  0
   10.6527    1.0511    0.0000 H   0  0  0  0  0  0  0  0  0  0  0  0
    7.3098    1.9915    0.0000 H   0  0  0  0  0  0  0  0  0  0  0  0
    7.3640    0.3585    0.0000 H   0  0  0  0  0  0  0  0  0  0  0  0
   10.1202    3.7465    0.0000 H   0  0  0  0  0  0  0  0  0  0  0  0
   10.5035    2.0037    0.0000 H   0  0  0  0  0  0  0  0  0  0  0  0
    6.9078    4.5583    0.0000 H   0  0  0  0  0  0  0  0  0  0  0  0
    7.0758    2.7818    0.0000 H   0  0  0  0  0  0  0  0  0  0  0  0
   10.2141    5.4150    0.0000 H   0  0  0  0  0  0  0  0  0  0  0  0
    7.3883    8.9171    0.0000 H   0  0  0  0  0  0  0  0  0  0  0  0
    5.3663    7.2855    0.0000 H   0  0  0  0  0  0  0  0  0  0  0  0
    5.7683    4.7188    0.0000 H   0  0  0  0  0  0  0  0  0  0  0  0
    6.7843    1.5912    0.0000 H   0  0  0  0  0  0  0  0  0  0  0  0
    6.5674   -1.7931    0.0000 H   0  0  0  0  0  0  0  0  0  0  0  0
    4.0994   -3.1555    0.0000 H   0  0  0  0  0  0  0  0  0  0  0  0
    6.0086   -2.3685    0.0000 H   0  0  0  0  0  0  0  0  0  0  0  0
    0.6852   -2.4905    0.0000 H   0  0  0  0  0  0  0  0  0  0  0  0
    2.6673   -4.0168    0.0000 H   0  0  0  0  0  0  0  0  0  0  0  0
    2.6370   -2.0241    0.0000 H   0  0  0  0  0  0  0  0  0  0  0  0
    2.7294    1.3292    0.0000 H   0  0  0  0  0  0  0  0  0  0  0  0
    0.4921    2.8340    0.0000 H   0  0  0  0  0  0  0  0  0  0  0  0
    2.1146    2.0912    0.0000 H   0  0  0  0  0  0  0  0  0  0  0  0
   -1.9937    0.4092    0.0000 H   0  0  0  0  0  0  0  0  0  0  0  0
   -0.9179   -0.3470    0.0000 H   0  0  0  0  0  0  0  0  0  0  0  0
   -2.1084    3.7206    0.0000 H   0  0  0  0  0  0  0  0  0  0  0  0
   -0.4074    3.1811    0.0000 H   0  0  0  0  0  0  0  0  0  0  0  0
   -4.1101    0.9565    0.0000 H   0  0  0  0  0  0  0  0  0  0  0  0
   -6.4703    4.1720    0.0000 H   0  0  0  0  0  0  0  0  0  0  0  0
   -4.4484    5.8035    0.0000 H   0  0  0  0  0  0  0  0  0  0  0  0
   -2.0245    4.8683    0.0000 H   0  0  0  0  0  0  0  0  0  0  0  0
   -1.1892    1.7108    0.0000 H   0  0  0  0  0  0  0  0  0  0  0  0
   -1.2254   -1.6436    0.0000 H   0  0  0  0  0  0  0  0  0  0  0  0
   -3.5188   -3.0614    0.0000 H   0  0  0  0  0  0  0  0  0  0  0  0
   -1.8690   -2.3814    0.0000 H   0  0  0  0  0  0  0  0  0  0  0  0
   -5.9098   -0.5430    0.0000 H   0  0  0  0  0  0  0  0  0  0  0  0
   -4.9859    0.1382    0.0000 H   0  0  0  0  0  0  0  0  0  0  0  0
   -6.1514   -3.8476    0.0000 H   0  0  0  0  0  0  0  0  0  0  0  0
   -4.4310   -3.3738    0.0000 H   0  0  0  0  0  0  0  0  0  0  0  0
   -8.0457   -1.0088    0.0000 H   0  0  0  0  0  0  0  0  0  0  0  0
  -10.5274   -4.1314    0.0000 H   0  0  0  0  0  0  0  0  0  0  0  0
   -8.5696   -5.8393    0.0000 H   0  0  0  0  0  0  0  0  0  0  0  0
   -6.1116   -4.9977    0.0000 H   0  0  0  0  0  0  0  0  0  0  0  0
   -5.1558   -1.8746    0.0000 H   0  0  0  0  0  0  0  0  0  0  0  0
   -5.0634    1.4787    0.0000 H   0  0  0  0  0  0  0  0  0  0  0  0
   -7.3007    2.9835    0.0000 H   0  0  0  0  0  0  0  0  0  0  0  0
   -5.5996    2.0752    0.0000 H   0  0  0  0  0  0  0  0  0  0  0  0
   -9.7865    0.5587    0.0000 H   0  0  0  0  0  0  0  0  0  0  0  0
   -8.8895   -0.1575    0.0000 H   0  0  0  0  0  0  0  0  0  0  0  0
   -9.9012    3.8701    0.0000 H   0  0  0  0  0  0  0  0  0  0  0  0
   -8.2002    3.3306    0.0000 H   0  0  0  0  0  0  0  0  0  0  0  0
  -11.9029    1.1060    0.0000 H   0  0  0  0  0  0  0  0  0  0  0  0
  -14.2631    4.3215    0.0000 H   0  0  0  0  0  0  0  0  0  0  0  0
  -12.2412    5.9531    0.0000 H   0  0  0  0  0  0  0  0  0  0  0  0
   -9.8173    5.0178    0.0000 H   0  0  0  0  0  0  0  0  0  0  0  0
   -8.9820    1.8603    0.0000 H   0  0  0  0  0  0  0  0  0  0  0  0
   -9.0182   -1.4941    0.0000 H   0  0  0  0  0  0  0  0  0  0  0  0
  -11.3116   -2.9119    0.0000 H   0  0  0  0  0  0  0  0  0  0  0  0
   -9.5770   -2.0695    0.0000 H   0  0  0  0  0  0  0  0  0  0  0  0
  -13.7026   -0.3935    0.0000 H   0  0  0  0  0  0  0  0  0  0  0  0
  -12.7787    0.2877    0.0000 H   0  0  0  0  0  0  0  0  0  0  0  0
  -13.9442   -3.6981    0.0000 H   0  0  0  0  0  0  0  0  0  0  0  0
  -12.2238   -3.2242    0.0000 H   0  0  0  0  0  0  0  0  0  0  0  0
  -15.6910   -0.7505    0.0000 H   0  0  0  0  0  0  0  0  0  0  0  0
  -18.3202   -3.9819    0.0000 H   0  0  0  0  0  0  0  0  0  0  0  0
  -16.3624   -5.6897    0.0000 H   0  0  0  0  0  0  0  0  0  0  0  0
  -13.9044   -4.8482    0.0000 H   0  0  0  0  0  0  0  0  0  0  0  0
  -12.9486   -1.7251    0.0000 H   0  0  0  0  0  0  0  0  0  0  0  0
  -12.8562    1.6283    0.0000 H   0  0  0  0  0  0  0  0  0  0  0  0
  -15.2701    3.0844    0.0000 H   0  0  0  0  0  0  0  0  0  0  0  0
  -13.3924    2.2247    0.0000 H   0  0  0  0  0  0  0  0  0  0  0  0
  -16.1127   -1.1471    0.0000 H   0  0  0  0  0  0  0  0  0  0  0  0
  -19.7177   -0.4352    0.0000 H   0  0  0  0  0  0  0  0  0  0  0  0
  -21.2569    1.9575    0.0000 H   0  0  0  0  0  0  0  0  0  0  0  0
  -21.0947    4.9531    0.0000 H   0  0  0  0  0  0  0  0  0  0  0  0
  -18.4193    6.3104    0.0000 H   0  0  0  0  0  0  0  0  0  0  0  0
  -15.9061    4.6721    0.0000 H   0  0  0  0  0  0  0  0  0  0  0  0
  -16.7748    2.0099    0.0000 H   0  0  0  0  0  0  0  0  0  0  0  0
  -16.9603   -1.4507    0.0000 H   0  0  0  0  0  0  0  0  0  0  0  0
  -19.1044   -2.7624    0.0000 H   0  0  0  0  0  0  0  0  0  0  0  0
  -17.3698   -1.9200    0.0000 H   0  0  0  0  0  0  0  0  0  0  0  0
  -21.4954   -0.2440    0.0000 H   0  0  0  0  0  0  0  0  0  0  0  0
  -20.3914    0.4703    0.0000 H   0  0  0  0  0  0  0  0  0  0  0  0
  -21.7370   -3.5486    0.0000 H   0  0  0  0  0  0  0  0  0  0  0  0
  -20.0166   -3.0747    0.0000 H   0  0  0  0  0  0  0  0  0  0  0  0
  -23.6313   -0.7097    0.0000 H   0  0  0  0  0  0  0  0  0  0  0  0
  -26.1130   -3.8323    0.0000 H   0  0  0  0  0  0  0  0  0  0  0  0
  -24.1552   -5.5402    0.0000 H   0  0  0  0  0  0  0  0  0  0  0  0
  -21.6972   -4.6986    0.0000 H   0  0  0  0  0  0  0  0  0  0  0  0
  -20.7414   -1.5756    0.0000 H   0  0  0  0  0  0  0  0  0  0  0  0
  -20.5185    1.6492    0.0000 H   0  0  0  0  0  0  0  0  0  0  0  0
  -23.0629    3.2339    0.0000 H   0  0  0  0  0  0  0  0  0  0  0  0
  -21.3619    2.6944    0.0000 H   0  0  0  0  0  0  0  0  0  0  0  0
  -25.3721    0.8577    0.0000 H   0  0  0  0  0  0  0  0  0  0  0  0
  -24.4750    0.1416    0.0000 H   0  0  0  0  0  0  0  0  0  0  0  0
  -25.4028    5.3168    0.0000 H   0  0  0  0  0  0  0  0  0  0  0  0
  -24.5676    2.1594    0.0000 H   0  0  0  0  0  0  0  0  0  0  0  0
  -24.6038   -1.1950    0.0000 H   0  0  0  0  0  0  0  0  0  0  0  0
  -26.8972   -2.6129    0.0000 H   0  0  0  0  0  0  0  0  0  0  0  0
  -25.1626   -1.7705    0.0000 H   0  0  0  0  0  0  0  0  0  0  0  0
  -29.2882   -0.0945    0.0000 H   0  0  0  0  0  0  0  0  0  0  0  0
  -28.1842    0.6198    0.0000 H   0  0  0  0  0  0  0  0  0  0  0  0
  -29.5298   -3.3991    0.0000 H   0  0  0  0  0  0  0  0  0  0  0  0
  -27.8094   -2.9252    0.0000 H   0  0  0  0  0  0  0  0  0  0  0  0
  -31.2766   -0.4515    0.0000 H   0  0  0  0  0  0  0  0  0  0  0  0
  -33.9058   -3.6828    0.0000 H   0  0  0  0  0  0  0  0  0  0  0  0
  -31.9480   -5.3907    0.0000 H   0  0  0  0  0  0  0  0  0  0  0  0
  -29.4900   -4.5491    0.0000 H   0  0  0  0  0  0  0  0  0  0  0  0
  -28.5342   -1.4260    0.0000 H   0  0  0  0  0  0  0  0  0  0  0  0
  -28.3113    1.7987    0.0000 H   0  0  0  0  0  0  0  0  0  0  0  0
  -31.5501    2.8899    0.0000 H   0  0  0  0  0  0  0  0  0  0  0  0
  -31.6000    1.1061    0.0000 H   0  0  0  0  0  0  0  0  0  0  0  0
  -28.8437    4.4941    0.0000 H   0  0  0  0  0  0  0  0  0  0  0  0
  -28.4605    2.7513    0.0000 H   0  0  0  0  0  0  0  0  0  0  0  0
  -31.1737    7.0979    0.0000 H   0  0  0  0  0  0  0  0  0  0  0  0
  -28.7498    6.1626    0.0000 H   0  0  0  0  0  0  0  0  0  0  0  0
  -32.1796    2.3388    0.0000 H   0  0  0  0  0  0  0  0  0  0  0  0
  -32.3966   -1.0455    0.0000 H   0  0  0  0  0  0  0  0  0  0  0  0
  -34.6900   -2.4633    0.0000 H   0  0  0  0  0  0  0  0  0  0  0  0
  -32.9553   -1.6210    0.0000 H   0  0  0  0  0  0  0  0  0  0  0  0
  -37.0810    0.0550    0.0000 H   0  0  0  0  0  0  0  0  0  0  0  0
  -35.7941    0.7802    0.0000 H   0  0  0  0  0  0  0  0  0  0  0  0
  -37.3226   -3.2496    0.0000 H   0  0  0  0  0  0  0  0  0  0  0  0
  -35.6022   -2.7757    0.0000 H   0  0  0  0  0  0  0  0  0  0  0  0
  -38.7405   -0.1422    0.0000 H   0  0  0  0  0  0  0  0  0  0  0  0
  -41.6986   -3.5333    0.0000 H   0  0  0  0  0  0  0  0  0  0  0  0
  -39.7408   -5.2412    0.0000 H   0  0  0  0  0  0  0  0  0  0  0  0
  -37.2828   -4.3996    0.0000 H   0  0  0  0  0  0  0  0  0  0  0  0
  -35.8786    3.1711    0.0000 H   0  0  0  0  0  0  0  0  0  0  0  0
  1  2  1  0
  2  3  1  0
  3  4  2  0
  4  5  1  0
  5  6  2  0
  6  7  1  0
  7  8  2  0
  7  9  1  0
  9 10  1  0
 10 11  1  0
 11 12  2  0
  9 13  1  0
 13 14  1  0
 14 15  2  0
 15 16  1  0
 16 17  2  0
 17 18  1  0
 16 19  1  0
 14 20  1  0
 20 21  1  0
 21 22  2  0
 22 23  1  0
 23 24  2  0
 24 25  1  0
 25 26  2  0
 25 27  1  0
  1 28  2  0
  1 29  1  0
 29 30  1  0
 30 31  1  0
 31 32  1  0
 32 33  2  0
 32 34  1  0
 34 35  1  0
 35 36  1  0
 36 37  1  0
 36 38  1  0
 35 39  1  0
 39 40  2  0
 39 41  1  0
 41 42  1  0
 42 43  1  0
 43 44  1  0
 44 45  1  0
 45 46  1  0
 46 47  1  0
 47 48  2  3
 47 49  1  0
 42 50  1  0
 50 51  2  0
 50 52  1  0
 52 53  1  0
 53 54  1  0
 54 55  1  0
 55 56  1  0
 56 57  1  0
 56 58  2  0
 53 59  1  0
 59 60  2  0
 59 61  1  0
 61 62  1  0
 62 63  1  0
 62 64  1  0
 64 65  2  0
 64 66  1  0
 66 67  1  0
 67 68  1  0
 68 69  1  0
 69 70  1  0
 70 71  1  0
 71 72  1  0
 72 73  2  3
 72 74  1  0
 67 75  1  0
 75 76  2  0
 75 77  1  0
 77 78  1  0
 78 79  1  0
 79 80  1  0
 80 81  1  0
 81 82  1  0
 82 83  1  0
 83 84  2  3
 83 85  1  0
 78 86  1  0
 86 87  2  0
 86 88  1  0
 88 89  1  0
 89 90  1  0
 90 91  1  0
 91 92  1  0
 91 93  2  0
 89 94  1  0
 94 95  2  0
 94 96  1  0
 96 97  1  0
 97 98  1  0
 98 99  1  0
 99100  1  0
100101  1  0
101102  1  0
102103  2  3
102104  1  0
 97105  1  0
105106  2  0
105107  1  0
107108  1  0
108109  1  0
109110  1  0
110111  1  0
111112  1  0
112113  1  0
113114  2  3
113115  1  0
108116  1  0
116117  2  0
116118  1  0
118119  1  0
119120  1  0
120121  1  0
121122  1  0
122123  1  0
123124  1  0
124125  2  3
124126  1  0
119127  1  0
127128  2  0
127129  1  0
129130  1  0
130131  1  0
131132  1  0
132133  1  0
133134  1  0
134135  1  0
135136  2  3
135137  1  0
130138  1  0
138139  2  0
138140  1  0
140141  1  0
141142  1  0
142143  1  0
143144  2  0
144145  1  0
145146  1  0
146147  2  0
147148  1  0
148149  2  0
149150  1  0
150151  2  0
141152  1  0
152153  2  0
152154  1  0
154155  1  0
155156  1  0
156157  1  0
157158  1  0
158159  1  0
159160  1  0
160161  2  3
160162  1  0
155163  1  0
163164  2  0
163165  1  0
165166  1  0
166167  1  0
167168  1  0
168169  1  0
169170  2  0
169171  1  0
166172  1  0
172173  2  0
172174  1  0
174175  1  0
175176  1  0
176177  1  0
177178  1  0
178179  1  0
179180  1  0
180181  2  3
180182  1  0
175183  1  0
183184  2  0
183185  1  0
185186  1  0
186187  1  0
187188  1  0
188189  1  0
189190  1  0
189191  2  0
186192  1  0
192193  2  0
192194  1  0
194195  1  0
195196  1  0
196197  1  0
197198  1  0
198199  1  0
199200  1  0
200201  2  3
200202  1  0
195203  1  0
203204  2  0
203205  1  0
  8  3  1  0
151143  1  0
 11  6  1  0
151146  1  0
 18 13  2  0
 22  9  1  0
 26 21  1  0
  2206  1  0
  4207  1  0
  5208  1  0
  8209  1  0
 15210  1  0
 17211  1  0
 18212  1  0
 19213  1  0
 23214  1  0
 24215  1  0
 26216  1  0
 27217  1  0
 29218  1  0
 30219  1  0
 30220  1  0
 31221  1  0
 31222  1  0
 34223  1  0
 35224  1  1
 36225  1  1
 37226  1  0
 38227  1  0
 38228  1  0
 38229  1  0
 41230  1  0
 42231  1  6
 43232  1  0
 43233  1  0
 44234  1  0
 44235  1  0
 45236  1  0
 45237  1  0
 46238  1  0
 48239  1  0
 49240  1  0
 49241  1  0
 52242  1  0
 53243  1  1
 54244  1  0
 54245  1  0
 55246  1  0
 55247  1  0
 57248  1  0
 57249  1  0
 61250  1  0
 62251  1  6
 63252  1  0
 63253  1  0
 63254  1  0
 66255  1  0
 67256  1  1
 68257  1  0
 68258  1  0
 69259  1  0
 69260  1  0
 70261  1  0
 70262  1  0
 71263  1  0
 73264  1  0
 74265  1  0
 74266  1  0
 77267  1  0
 78268  1  6
 79269  1  0
 79270  1  0
 80271  1  0
 80272  1  0
 81273  1  0
 81274  1  0
 82275  1  0
 84276  1  0
 85277  1  0
 85278  1  0
 88279  1  0
 89280  1  1
 90281  1  0
 90282  1  0
 92283  1  0
 92284  1  0
 96285  1  0
 97286  1  6
 98287  1  0
 98288  1  0
 99289  1  0
 99290  1  0
100291  1  0
100292  1  0
101293  1  0
103294  1  0
104295  1  0
104296  1  0
107297  1  0
108298  1  1
109299  1  0
109300  1  0
110301  1  0
110302  1  0
111303  1  0
111304  1  0
112305  1  0
114306  1  0
115307  1  0
115308  1  0
118309  1  0
119310  1  6
120311  1  0
120312  1  0
121313  1  0
121314  1  0
122315  1  0
122316  1  0
123317  1  0
125318  1  0
126319  1  0
126320  1  0
129321  1  0
130322  1  1
131323  1  0
131324  1  0
132325  1  0
132326  1  0
133327  1  0
133328  1  0
134329  1  0
136330  1  0
137331  1  0
137332  1  0
140333  1  0
141334  1  6
142335  1  0
142336  1  0
144337  1  0
145338  1  0
147339  1  0
148340  1  0
149341  1  0
150342  1  0
154343  1  0
155344  1  1
156345  1  0
156346  1  0
157347  1  0
157348  1  0
158349  1  0
158350  1  0
159351  1  0
161352  1  0
162353  1  0
162354  1  0
165355  1  0
166356  1  6
167357  1  0
167358  1  0
168359  1  0
168360  1  0
171361  1  0
174362  1  0
175363  1  1
176364  1  0
176365  1  0
177366  1  0
177367  1  0
178368  1  0
178369  1  0
179370  1  0
181371  1  0
182372  1  0
182373  1  0
185374  1  0
186375  1  6
187376  1  0
187377  1  0
188378  1  0
188379  1  0
190380  1  0
190381  1  0
194382  1  0
195383  1  1
196384  1  0
196385  1  0
197386  1  0
197387  1  0
198388  1  0
198389  1  0
199390  1  0
201391  1  0
202392  1  0
202393  1  0
205394  1  0
M  END
