
     RDKit          2D

324329  0  0  0  0  0  0  0  0999 V2000
   20.9638   -2.6980    0.0000 C   0  0  0  0  0  0  0  0  0  0  0  0
   22.2741   -1.9680    0.0000 N   0  0  0  0  0  0  0  0  0  0  0  0
   23.5616   -2.7378    0.0000 C   0  0  0  0  0  0  0  0  0  0  0  0
   23.5386   -4.2376    0.0000 C   0  0  0  0  0  0  0  0  0  0  0  0
   24.8260   -5.0074    0.0000 C   0  0  0  0  0  0  0  0  0  0  0  0
   26.1364   -4.2774    0.0000 C   0  0  0  0  0  0  0  0  0  0  0  0
   26.1593   -2.7775    0.0000 C   0  0  0  0  0  0  0  0  0  0  0  0
   24.8719   -2.0077    0.0000 C   0  0  0  0  0  0  0  0  0  0  0  0
   27.5928   -2.3359    0.0000 C   0  0  0  0  0  0  0  0  0  0  0  0
   28.4559   -3.5628    0.0000 O   0  0  0  0  0  0  0  0  0  0  0  0
   27.5557   -4.7626    0.0000 C   0  0  0  0  0  0  0  0  0  0  0  0
   27.9974   -6.1962    0.0000 O   0  0  0  0  0  0  0  0  0  0  0  0
   29.0647   -2.0465    0.0000 C   0  0  0  0  0  0  0  0  0  0  0  0
   29.5500   -0.6272    0.0000 C   0  0  0  0  0  0  0  0  0  0  0  0
   31.0218   -0.3378    0.0000 C   0  0  0  0  0  0  0  0  0  0  0  0
   32.0083   -1.4677    0.0000 C   0  0  0  0  0  0  0  0  0  0  0  0
   31.5230   -2.8871    0.0000 C   0  0  0  0  0  0  0  0  0  0  0  0
   30.0512   -3.1764    0.0000 C   0  0  0  0  0  0  0  0  0  0  0  0
   33.4801   -1.1783    0.0000 O   0  0  0  0  0  0  0  0  0  0  0  0
   28.5634    0.5028    0.0000 O   0  0  0  0  0  0  0  0  0  0  0  0
   27.0916    0.2134    0.0000 C   0  0  0  0  0  0  0  0  0  0  0  0
   26.6063   -1.2059    0.0000 C   0  0  0  0  0  0  0  0  0  0  0  0
   25.3610   -0.8330    0.0000 C   0  0  0  0  0  0  0  0  0  0  0  0
   24.8348   -0.2303    0.0000 C   0  0  0  0  0  0  0  0  0  0  0  0
   25.0936    0.5266    0.0000 C   0  0  0  0  0  0  0  0  0  0  0  0
   25.8786    0.6810    0.0000 C   0  0  0  0  0  0  0  0  0  0  0  0
   23.6467    2.1839    0.0000 O   0  0  0  0  0  0  0  0  0  0  0  0
   20.9408   -4.1979    0.0000 S   0  0  0  0  0  0  0  0  0  0  0  0
   19.6764   -1.9283    0.0000 N   0  0  0  0  0  0  0  0  0  0  0  0
   18.3660   -2.6583    0.0000 C   0  0  0  0  0  0  0  0  0  0  0  0
   17.0786   -1.8885    0.0000 C   0  0  0  0  0  0  0  0  0  0  0  0
   15.7682   -2.6186    0.0000 C   0  0  0  0  0  0  0  0  0  0  0  0
   15.9493   -3.3949    0.0000 O   0  0  0  0  0  0  0  0  0  0  0  0
   14.4808   -1.8488    0.0000 N   0  0  0  0  0  0  0  0  0  0  0  0
   13.1705   -2.5788    0.0000 C   0  0  0  0  0  0  0  0  0  0  0  0
   14.1170   -3.7425    0.0000 C   0  0  0  0  0  0  0  0  0  0  0  0
   15.5980   -3.5046    0.0000 C   0  0  0  0  0  0  0  0  0  0  0  0
   16.5445   -4.6683    0.0000 C   0  0  0  0  0  0  0  0  0  0  0  0
   18.0255   -4.4305    0.0000 N   0  0  0  0  0  0  0  0  0  0  0  0
   18.9720   -5.5942    0.0000 C   0  0  0  0  0  0  0  0  0  0  0  0
   20.4530   -5.3563    0.0000 N   0  0  0  0  0  0  0  0  0  0  0  0
   18.4375   -6.9957    0.0000 N   0  0  0  0  0  0  0  0  0  0  0  0
   11.6894   -2.8166    0.0000 C   0  0  0  0  0  0  0  0  0  0  0  0
   11.5099   -4.3059    0.0000 O   0  0  0  0  0  0  0  0  0  0  0  0
   10.7430   -1.6530    0.0000 N   0  0  0  0  0  0  0  0  0  0  0  0
    9.2619   -1.8908    0.0000 C   0  0  0  0  0  0  0  0  0  0  0  0
    9.7533   -3.3080    0.0000 C   0  0  0  0  0  0  0  0  0  0  0  0
   11.2264   -3.5911    0.0000 C   0  0  0  0  0  0  0  0  0  0  0  0
   11.7178   -5.0083    0.0000 N   0  0  0  0  0  0  0  0  0  0  0  0
   12.4533   -2.7281    0.0000 O   0  0  0  0  0  0  0  0  0  0  0  0
    7.7889   -1.6078    0.0000 C   0  0  0  0  0  0  0  0  0  0  0  0
    7.1108   -2.9458    0.0000 O   0  0  0  0  0  0  0  0  0  0  0  0
    7.2975   -0.1906    0.0000 N   0  0  0  0  0  0  0  0  0  0  0  0
    5.8244    0.0925    0.0000 C   0  0  0  0  0  0  0  0  0  0  0  0
    5.8015   -1.4073    0.0000 C   0  0  0  0  0  0  0  0  0  0  0  0
    7.0889   -2.1771    0.0000 C   0  0  0  0  0  0  0  0  0  0  0  0
    5.2669   -2.8089    0.0000 C   0  0  0  0  0  0  0  0  0  0  0  0
    6.2134   -3.9725    0.0000 C   0  0  0  0  0  0  0  0  0  0  0  0
    4.5370    0.8623    0.0000 C   0  0  0  0  0  0  0  0  0  0  0  0
    3.4422   -0.1631    0.0000 O   0  0  0  0  0  0  0  0  0  0  0  0
    4.5600    2.3621    0.0000 N   0  0  0  0  0  0  0  0  0  0  0  0
    3.2725    3.1319    0.0000 C   0  0  0  0  0  0  0  0  0  0  0  0
    3.1545    1.6365    0.0000 C   0  0  0  0  0  0  0  0  0  0  0  0
    2.7556    0.1905    0.0000 C   0  0  0  0  0  0  0  0  0  0  0  0
    2.0903   -1.1538    0.0000 C   0  0  0  0  0  0  0  0  0  0  0  0
    1.1826   -2.3480    0.0000 C   0  0  0  0  0  0  0  0  0  0  0  0
    0.0652   -3.3488    0.0000 C   0  0  0  0  0  0  0  0  0  0  0  0
   -1.2213   -4.1200    0.0000 C   0  0  0  0  0  0  0  0  0  0  0  0
   -2.6306   -4.6339    0.0000 C   0  0  0  0  0  0  0  0  0  0  0  0
    4.5340    3.9436    0.0000 C   0  0  0  0  0  0  0  0  0  0  0  0
    3.1054    4.6225    0.0000 C   0  0  0  0  0  0  0  0  0  0  0  0
    4.5250    5.1072    0.0000 O   0  0  0  0  0  0  0  0  0  0  0  0
    2.6592    6.0546    0.0000 N   0  0  0  0  0  0  0  0  0  0  0  0
    1.9501    7.3764    0.0000 C   0  0  0  0  0  0  0  0  0  0  0  0
    2.5724    8.7412    0.0000 C   0  0  0  0  0  0  0  0  0  0  0  0
    4.0656    8.8847    0.0000 C   0  0  0  0  0  0  0  0  0  0  0  0
    4.6879   10.2495    0.0000 O   0  0  0  0  0  0  0  0  0  0  0  0
    4.9363    7.6633    0.0000 O   0  0  0  0  0  0  0  0  0  0  0  0
    1.0036    8.5401    0.0000 C   0  0  0  0  0  0  0  0  0  0  0  0
    1.9357    9.7153    0.0000 O   0  0  0  0  0  0  0  0  0  0  0  0
   -0.1460    9.5036    0.0000 N   0  0  0  0  0  0  0  0  0  0  0  0
   -1.4572   10.2322    0.0000 C   0  0  0  0  0  0  0  0  0  0  0  0
   -1.6715   11.7168    0.0000 C   0  0  0  0  0  0  0  0  0  0  0  0
   -0.4930   12.6447    0.0000 C   0  0  0  0  0  0  0  0  0  0  0  0
   -0.7073   14.1293    0.0000 C   0  0  0  0  0  0  0  0  0  0  0  0
    0.4713   15.0572    0.0000 N   0  0  0  0  0  0  0  0  0  0  0  0
    0.2569   16.5418    0.0000 C   0  0  0  0  0  0  0  0  0  0  0  0
    1.4355   17.4697    0.0000 N   0  0  0  0  0  0  0  0  0  0  0  0
   -1.1359   17.0985    0.0000 N   0  0  0  0  0  0  0  0  0  0  0  0
   -2.8826   10.6994    0.0000 C   0  0  0  0  0  0  0  0  0  0  0  0
   -2.7338   12.1920    0.0000 O   0  0  0  0  0  0  0  0  0  0  0  0
   -4.3706   10.8885    0.0000 N   0  0  0  0  0  0  0  0  0  0  0  0
   -5.8676   10.7925    0.0000 C   0  0  0  0  0  0  0  0  0  0  0  0
   -6.8505   11.9255    0.0000 C   0  0  0  0  0  0  0  0  0  0  0  0
   -6.1915   13.2730    0.0000 C   0  0  0  0  0  0  0  0  0  0  0  0
   -8.1617   12.6541    0.0000 C   0  0  0  0  0  0  0  0  0  0  0  0
   -8.1863   14.1539    0.0000 C   0  0  0  0  0  0  0  0  0  0  0  0
   -7.3193   10.4149    0.0000 C   0  0  0  0  0  0  0  0  0  0  0  0
   -7.8331   11.8242    0.0000 O   0  0  0  0  0  0  0  0  0  0  0  0
   -8.6733    9.7695    0.0000 N   0  0  0  0  0  0  0  0  0  0  0  0
   -9.8807    8.8794    0.0000 C   0  0  0  0  0  0  0  0  0  0  0  0
  -11.3202    9.3012    0.0000 C   0  0  0  0  0  0  0  0  0  0  0  0
  -11.6746   10.7587    0.0000 C   0  0  0  0  0  0  0  0  0  0  0  0
  -13.1141   11.1805    0.0000 C   0  0  0  0  0  0  0  0  0  0  0  0
  -13.4686   12.6380    0.0000 C   0  0  0  0  0  0  0  0  0  0  0  0
  -14.9081   13.0598    0.0000 N   0  0  0  0  0  0  0  0  0  0  0  0
  -10.8978    7.7770    0.0000 C   0  0  0  0  0  0  0  0  0  0  0  0
  -12.1937    8.5324    0.0000 O   0  0  0  0  0  0  0  0  0  0  0  0
  -11.6879    6.5019    0.0000 N   0  0  0  0  0  0  0  0  0  0  0  0
  -12.2225    5.1004    0.0000 C   0  0  0  0  0  0  0  0  0  0  0  0
  -13.6615    4.6770    0.0000 C   0  0  0  0  0  0  0  0  0  0  0  0
  -14.7477    5.7115    0.0000 C   0  0  0  0  0  0  0  0  0  0  0  0
  -16.1867    5.2881    0.0000 C   0  0  0  0  0  0  0  0  0  0  0  0
  -17.2728    6.3226    0.0000 O   0  0  0  0  0  0  0  0  0  0  0  0
  -16.5395    3.8301    0.0000 O   0  0  0  0  0  0  0  0  0  0  0  0
  -12.4821    3.6230    0.0000 C   0  0  0  0  0  0  0  0  0  0  0  0
  -13.9807    3.5579    0.0000 O   0  0  0  0  0  0  0  0  0  0  0  0
  -12.4574    2.1232    0.0000 N   0  0  0  0  0  0  0  0  0  0  0  0
  -12.1494    0.6552    0.0000 C   0  0  0  0  0  0  0  0  0  0  0  0
  -13.1310   -0.4790    0.0000 C   0  0  0  0  0  0  0  0  0  0  0  0
  -14.6041   -0.1959    0.0000 C   0  0  0  0  0  0  0  0  0  0  0  0
  -15.5858   -1.3301    0.0000 C   0  0  0  0  0  0  0  0  0  0  0  0
  -15.8915    0.5738    0.0000 C   0  0  0  0  0  0  0  0  0  0  0  0
  -11.5691   -0.7280    0.0000 C   0  0  0  0  0  0  0  0  0  0  0  0
  -12.7946   -1.5930    0.0000 O   0  0  0  0  0  0  0  0  0  0  0  0
  -10.7375   -1.9764    0.0000 N   0  0  0  0  0  0  0  0  0  0  0  0
   -9.6847   -3.0448    0.0000 C   0  0  0  0  0  0  0  0  0  0  0  0
   -8.4487   -3.8947    0.0000 C   0  0  0  0  0  0  0  0  0  0  0  0
   -7.0742   -4.4953    0.0000 C   0  0  0  0  0  0  0  0  0  0  0  0
   -5.6109   -4.8250    0.0000 C   0  0  0  0  0  0  0  0  0  0  0  0
   -4.1116   -4.8717    0.0000 C   0  0  0  0  0  0  0  0  0  0  0  0
  -11.1095   -3.5137    0.0000 C   0  0  0  0  0  0  0  0  0  0  0  0
   -9.8973   -4.5297    0.0000 C   0  0  0  0  0  0  0  0  0  0  0  0
   -8.9770   -5.7141    0.0000 O   0  0  0  0  0  0  0  0  0  0  0  0
  -11.2896   -5.0880    0.0000 N   0  0  0  0  0  0  0  0  0  0  0  0
  -11.5022   -6.5728    0.0000 C   0  0  0  0  0  0  0  0  0  0  0  0
  -11.1941   -8.0408    0.0000 C   0  0  0  0  0  0  0  0  0  0  0  0
  -10.4026   -9.3150    0.0000 O   0  0  0  0  0  0  0  0  0  0  0  0
  -12.1811   -9.1704    0.0000 C   0  0  0  0  0  0  0  0  0  0  0  0
  -12.8944   -7.1311    0.0000 C   0  0  0  0  0  0  0  0  0  0  0  0
  -14.0740   -6.2045    0.0000 O   0  0  0  0  0  0  0  0  0  0  0  0
  -13.1070   -8.6159    0.0000 N   0  0  0  0  0  0  0  0  0  0  0  0
  -14.4993   -9.1742    0.0000 C   0  0  0  0  0  0  0  0  0  0  0  0
  -15.9985   -9.2227    0.0000 C   0  0  0  0  0  0  0  0  0  0  0  0
  -16.7901   -7.9485    0.0000 C   0  0  0  0  0  0  0  0  0  0  0  0
  -18.2893   -7.9970    0.0000 C   0  0  0  0  0  0  0  0  0  0  0  0
  -19.0808   -6.7228    0.0000 N   0  0  0  0  0  0  0  0  0  0  0  0
  -20.5801   -6.7713    0.0000 C   0  0  0  0  0  0  0  0  0  0  0  0
  -21.3716   -5.4972    0.0000 N   0  0  0  0  0  0  0  0  0  0  0  0
  -21.2877   -8.0939    0.0000 N   0  0  0  0  0  0  0  0  0  0  0  0
  -14.7119  -10.6591    0.0000 C   0  0  0  0  0  0  0  0  0  0  0  0
  -13.5323  -11.5857    0.0000 O   0  0  0  0  0  0  0  0  0  0  0  0
  -16.1041  -11.2174    0.0000 N   0  0  0  0  0  0  0  0  0  0  0  0
  -16.3168  -12.7022    0.0000 C   0  0  0  0  0  0  0  0  0  0  0  0
  -16.0087  -14.1703    0.0000 C   0  0  0  0  0  0  0  0  0  0  0  0
  -17.1261  -15.1710    0.0000 C   0  0  0  0  0  0  0  0  0  0  0  0
  -15.2172  -15.4444    0.0000 C   0  0  0  0  0  0  0  0  0  0  0  0
  -13.7179  -15.3959    0.0000 C   0  0  0  0  0  0  0  0  0  0  0  0
  -17.7090  -13.2605    0.0000 C   0  0  0  0  0  0  0  0  0  0  0  0
  -18.1010  -14.7084    0.0000 O   0  0  0  0  0  0  0  0  0  0  0  0
  -18.8886  -12.3339    0.0000 O   0  0  0  0  0  0  0  0  0  0  0  0
   22.1141   -0.4766    0.0000 H   0  0  0  0  0  0  0  0  0  0  0  0
   22.2283   -4.9676    0.0000 H   0  0  0  0  0  0  0  0  0  0  0  0
   24.8031   -6.5072    0.0000 H   0  0  0  0  0  0  0  0  0  0  0  0
   24.5313   -0.5469    0.0000 H   0  0  0  0  0  0  0  0  0  0  0  0
   31.5071    1.0815    0.0000 H   0  0  0  0  0  0  0  0  0  0  0  0
   32.5095   -4.0170    0.0000 H   0  0  0  0  0  0  0  0  0  0  0  0
   29.5659   -4.5958    0.0000 H   0  0  0  0  0  0  0  0  0  0  0  0
   34.4666   -2.3083    0.0000 H   0  0  0  0  0  0  0  0  0  0  0  0
   24.6492   -2.9147    0.0000 H   0  0  0  0  0  0  0  0  0  0  0  0
   22.6518   -0.4732    0.0000 H   0  0  0  0  0  0  0  0  0  0  0  0
   26.5904    2.7627    0.0000 H   0  0  0  0  0  0  0  0  0  0  0  0
   24.1320    3.6032    0.0000 H   0  0  0  0  0  0  0  0  0  0  0  0
   19.6993   -0.4284    0.0000 H   0  0  0  0  0  0  0  0  0  0  0  0
   19.3125   -3.8220    0.0000 H   0  0  0  0  0  0  0  0  0  0  0  0
   17.6880   -3.9963    0.0000 H   0  0  0  0  0  0  0  0  0  0  0  0
   18.0602   -0.7543    0.0000 H   0  0  0  0  0  0  0  0  0  0  0  0
   16.1321   -0.7248    0.0000 H   0  0  0  0  0  0  0  0  0  0  0  0
   14.5038   -0.3489    0.0000 H   0  0  0  0  0  0  0  0  0  0  0  0
   12.6791   -1.1616    0.0000 H   0  0  0  0  0  0  0  0  0  0  0  0
   14.4320   -5.2090    0.0000 H   0  0  0  0  0  0  0  0  0  0  0  0
   12.9054   -4.6268    0.0000 H   0  0  0  0  0  0  0  0  0  0  0  0
   16.9083   -2.7746    0.0000 H   0  0  0  0  0  0  0  0  0  0  0  0
   15.4641   -2.0106    0.0000 H   0  0  0  0  0  0  0  0  0  0  0  0
   17.0359   -6.0855    0.0000 H   0  0  0  0  0  0  0  0  0  0  0  0
   15.3329   -5.5526    0.0000 H   0  0  0  0  0  0  0  0  0  0  0  0
   18.8833   -3.1999    0.0000 H   0  0  0  0  0  0  0  0  0  0  0  0
   21.3995   -6.5200    0.0000 H   0  0  0  0  0  0  0  0  0  0  0  0
   19.3839   -8.1594    0.0000 H   0  0  0  0  0  0  0  0  0  0  0  0
   16.9564   -7.2335    0.0000 H   0  0  0  0  0  0  0  0  0  0  0  0
   11.2775   -0.2514    0.0000 H   0  0  0  0  0  0  0  0  0  0  0  0
    9.2849   -0.3910    0.0000 H   0  0  0  0  0  0  0  0  0  0  0  0
    9.7304   -4.8079    0.0000 H   0  0  0  0  0  0  0  0  0  0  0  0
    8.2723   -3.5459    0.0000 H   0  0  0  0  0  0  0  0  0  0  0  0
   13.1454   -5.4688    0.0000 H   0  0  0  0  0  0  0  0  0  0  0  0
   10.7362   -6.1425    0.0000 H   0  0  0  0  0  0  0  0  0  0  0  0
    8.2791    0.9436    0.0000 H   0  0  0  0  0  0  0  0  0  0  0  0
    6.3590    1.4940    0.0000 H   0  0  0  0  0  0  0  0  0  0  0  0
    4.3284   -1.1243    0.0000 H   0  0  0  0  0  0  0  0  0  0  0  0
    7.2489   -3.6686    0.0000 H   0  0  0  0  0  0  0  0  0  0  0  0
    8.5619   -2.4602    0.0000 H   0  0  0  0  0  0  0  0  0  0  0  0
    7.9802   -0.9761    0.0000 H   0  0  0  0  0  0  0  0  0  0  0  0
    4.2853   -3.9430    0.0000 H   0  0  0  0  0  0  0  0  0  0  0  0
    3.9795   -2.0391    0.0000 H   0  0  0  0  0  0  0  0  0  0  0  0
    5.6789   -5.3741    0.0000 H   0  0  0  0  0  0  0  0  0  0  0  0
    7.5008   -4.7423    0.0000 H   0  0  0  0  0  0  0  0  0  0  0  0
    7.5364   -3.2656    0.0000 H   0  0  0  0  0  0  0  0  0  0  0  0
    5.9495    2.9270    0.0000 H   0  0  0  0  0  0  0  0  0  0  0  0
    4.6405    1.8413    0.0000 H   0  0  0  0  0  0  0  0  0  0  0  0
    4.1428    0.5081    0.0000 H   0  0  0  0  0  0  0  0  0  0  0  0
    4.2325   -0.0716    0.0000 H   0  0  0  0  0  0  0  0  0  0  0  0
    3.6647   -1.0026    0.0000 H   0  0  0  0  0  0  0  0  0  0  0  0
    3.5903   -1.1530    0.0000 H   0  0  0  0  0  0  0  0  0  0  0  0
    2.9160   -2.4061    0.0000 H   0  0  0  0  0  0  0  0  0  0  0  0
    2.6101   -2.8085    0.0000 H   0  0  0  0  0  0  0  0  0  0  0  0
    1.7563   -3.7339    0.0000 H   0  0  0  0  0  0  0  0  0  0  0  0
    1.3798   -4.0711    0.0000 H   0  0  0  0  0  0  0  0  0  0  0  0
    0.3663   -4.8182    0.0000 H   0  0  0  0  0  0  0  0  0  0  0  0
   -0.0672   -5.0781    0.0000 H   0  0  0  0  0  0  0  0  0  0  0  0
   -1.3867   -5.6109    0.0000 H   0  0  0  0  0  0  0  0  0  0  0  0
   -2.2530   -6.0856    0.0000 H   0  0  0  0  0  0  0  0  0  0  0  0
    5.9413    3.4247    0.0000 H   0  0  0  0  0  0  0  0  0  0  0  0
    5.5805    5.0182    0.0000 H   0  0  0  0  0  0  0  0  0  0  0  0
    3.8123    5.2586    0.0000 H   0  0  0  0  0  0  0  0  0  0  0  0
    4.0424    6.6350    0.0000 H   0  0  0  0  0  0  0  0  0  0  0  0
    3.4493    7.4249    0.0000 H   0  0  0  0  0  0  0  0  0  0  0  0
    2.8719   10.2110    0.0000 H   0  0  0  0  0  0  0  0  0  0  0  0
    1.2544    9.4573    0.0000 H   0  0  0  0  0  0  0  0  0  0  0  0
    6.4295    7.8067    0.0000 H   0  0  0  0  0  0  0  0  0  0  0  0
    0.8482   10.6268    0.0000 H   0  0  0  0  0  0  0  0  0  0  0  0
   -0.1276   10.9266    0.0000 H   0  0  0  0  0  0  0  0  0  0  0  0
   -2.3807   13.0386    0.0000 H   0  0  0  0  0  0  0  0  0  0  0  0
   -3.1675   11.6066    0.0000 H   0  0  0  0  0  0  0  0  0  0  0  0
    0.9319   13.1136    0.0000 H   0  0  0  0  0  0  0  0  0  0  0  0
    0.5149   11.5338    0.0000 H   0  0  0  0  0  0  0  0  0  0  0  0
   -1.4164   15.4511    0.0000 H   0  0  0  0  0  0  0  0  0  0  0  0
   -2.1787   13.8376    0.0000 H   0  0  0  0  0  0  0  0  0  0  0  0
    1.8641   14.5005    0.0000 H   0  0  0  0  0  0  0  0  0  0  0  0
    1.2212   18.9544    0.0000 H   0  0  0  0  0  0  0  0  0  0  0  0
   -1.3502   18.5831    0.0000 H   0  0  0  0  0  0  0  0  0  0  0  0
   -2.3145   16.1706    0.0000 H   0  0  0  0  0  0  0  0  0  0  0  0
   -4.1415   12.3709    0.0000 H   0  0  0  0  0  0  0  0  0  0  0  0
   -5.1244   12.0955    0.0000 H   0  0  0  0  0  0  0  0  0  0  0  0
   -8.0494   11.0241    0.0000 H   0  0  0  0  0  0  0  0  0  0  0  0
   -7.1884   14.6079    0.0000 H   0  0  0  0  0  0  0  0  0  0  0  0
   -5.4155   14.5081    0.0000 H   0  0  0  0  0  0  0  0  0  0  0  0
   -4.9122   12.9537    0.0000 H   0  0  0  0  0  0  0  0  0  0  0  0
   -9.6430   12.8903    0.0000 H   0  0  0  0  0  0  0  0  0  0  0  0
   -8.8206   11.3066    0.0000 H   0  0  0  0  0  0  0  0  0  0  0  0
   -9.4975   14.8824    0.0000 H   0  0  0  0  0  0  0  0  0  0  0  0
   -7.6965   15.5717    0.0000 H   0  0  0  0  0  0  0  0  0  0  0  0
   -6.6919   14.2832    0.0000 H   0  0  0  0  0  0  0  0  0  0  0  0
   -9.4445   11.0560    0.0000 H   0  0  0  0  0  0  0  0  0  0  0  0
   -9.9600   10.3773    0.0000 H   0  0  0  0  0  0  0  0  0  0  0  0
  -12.8171    9.2052    0.0000 H   0  0  0  0  0  0  0  0  0  0  0  0
  -11.8414    7.8947    0.0000 H   0  0  0  0  0  0  0  0  0  0  0  0
  -11.3287   12.2183    0.0000 H   0  0  0  0  0  0  0  0  0  0  0  0
  -10.2454   11.2141    0.0000 H   0  0  0  0  0  0  0  0  0  0  0  0
  -14.6110   11.0845    0.0000 H   0  0  0  0  0  0  0  0  0  0  0  0
  -13.4600    9.7209    0.0000 H   0  0  0  0  0  0  0  0  0  0  0  0
  -13.3032   14.1289    0.0000 H   0  0  0  0  0  0  0  0  0  0  0  0
  -11.9945   12.9158    0.0000 H   0  0  0  0  0  0  0  0  0  0  0  0
  -15.2625   14.5173    0.0000 H   0  0  0  0  0  0  0  0  0  0  0  0
  -15.9931   12.0241    0.0000 H   0  0  0  0  0  0  0  0  0  0  0  0
  -12.9412    7.3262    0.0000 H   0  0  0  0  0  0  0  0  0  0  0  0
  -13.0990    6.3176    0.0000 H   0  0  0  0  0  0  0  0  0  0  0  0
  -14.9684    3.9407    0.0000 H   0  0  0  0  0  0  0  0  0  0  0  0
  -13.3395    3.2119    0.0000 H   0  0  0  0  0  0  0  0  0  0  0  0
  -15.4145    7.0551    0.0000 H   0  0  0  0  0  0  0  0  0  0  0  0
  -13.7915    6.8672    0.0000 H   0  0  0  0  0  0  0  0  0  0  0  0
  -17.9785    3.4067    0.0000 H   0  0  0  0  0  0  0  0  0  0  0  0
  -13.9574    2.1391    0.0000 H   0  0  0  0  0  0  0  0  0  0  0  0
  -13.5449    1.2053    0.0000 H   0  0  0  0  0  0  0  0  0  0  0  0
  -13.6656   -1.8805    0.0000 H   0  0  0  0  0  0  0  0  0  0  0  0
  -12.0682   -1.5374    0.0000 H   0  0  0  0  0  0  0  0  0  0  0  0
  -14.4246    1.2933    0.0000 H   0  0  0  0  0  0  0  0  0  0  0  0
  -17.0823   -1.2287    0.0000 H   0  0  0  0  0  0  0  0  0  0  0  0
  -16.1203   -2.7316    0.0000 H   0  0  0  0  0  0  0  0  0  0  0  0
  -14.4018   -2.2511    0.0000 H   0  0  0  0  0  0  0  0  0  0  0  0
  -17.2811    0.0090    0.0000 H   0  0  0  0  0  0  0  0  0  0  0  0
  -16.8380    1.7375    0.0000 H   0  0  0  0  0  0  0  0  0  0  0  0
  -14.9099    1.7080    0.0000 H   0  0  0  0  0  0  0  0  0  0  0  0
  -12.0079   -2.7740    0.0000 H   0  0  0  0  0  0  0  0  0  0  0  0
   -8.3765   -5.3930    0.0000 H   0  0  0  0  0  0  0  0  0  0  0  0
   -9.5435   -4.9201    0.0000 H   0  0  0  0  0  0  0  0  0  0  0  0
   -6.9000   -5.9852    0.0000 H   0  0  0  0  0  0  0  0  0  0  0  0
   -7.9551   -5.7094    0.0000 H   0  0  0  0  0  0  0  0  0  0  0  0
   -4.9870   -6.1890    0.0000 H   0  0  0  0  0  0  0  0  0  0  0  0
   -6.4070   -6.0962    0.0000 H   0  0  0  0  0  0  0  0  0  0  0  0
   -4.0156   -6.3686    0.0000 H   0  0  0  0  0  0  0  0  0  0  0  0
  -11.7621   -4.8643    0.0000 H   0  0  0  0  0  0  0  0  0  0  0  0
  -12.6088   -3.4669    0.0000 H   0  0  0  0  0  0  0  0  0  0  0  0
  -11.6767   -2.1250    0.0000 H   0  0  0  0  0  0  0  0  0  0  0  0
  -12.5733   -4.3121    0.0000 H   0  0  0  0  0  0  0  0  0  0  0  0
  -10.0030   -6.5244    0.0000 H   0  0  0  0  0  0  0  0  0  0  0  0
   -9.8019   -7.4826    0.0000 H   0  0  0  0  0  0  0  0  0  0  0  0
   -8.9034   -9.2665    0.0000 H   0  0  0  0  0  0  0  0  0  0  0  0
  -12.0034  -10.5097    0.0000 H   0  0  0  0  0  0  0  0  0  0  0  0
  -13.7037   -9.5999    0.0000 H   0  0  0  0  0  0  0  0  0  0  0  0
  -13.6086   -8.2884    0.0000 H   0  0  0  0  0  0  0  0  0  0  0  0
  -12.0492   -9.6794    0.0000 H   0  0  0  0  0  0  0  0  0  0  0  0
  -14.6261   -7.6796    0.0000 H   0  0  0  0  0  0  0  0  0  0  0  0
  -17.3907   -9.7810    0.0000 H   0  0  0  0  0  0  0  0  0  0  0  0
  -16.0548  -10.7216    0.0000 H   0  0  0  0  0  0  0  0  0  0  0  0
  -17.0981   -6.4805    0.0000 H   0  0  0  0  0  0  0  0  0  0  0  0
  -15.4763   -7.2247    0.0000 H   0  0  0  0  0  0  0  0  0  0  0  0
  -19.6815   -8.5553    0.0000 H   0  0  0  0  0  0  0  0  0  0  0  0
  -18.1625   -9.4916    0.0000 H   0  0  0  0  0  0  0  0  0  0  0  0
  -18.3732   -5.4003    0.0000 H   0  0  0  0  0  0  0  0  0  0  0  0
  -22.8708   -5.5456    0.0000 H   0  0  0  0  0  0  0  0  0  0  0  0
  -22.7869   -8.1423    0.0000 H   0  0  0  0  0  0  0  0  0  0  0  0
  -20.4961   -9.3680    0.0000 H   0  0  0  0  0  0  0  0  0  0  0  0
  -17.3879  -10.4415    0.0000 H   0  0  0  0  0  0  0  0  0  0  0  0
  -14.8176  -12.6538    0.0000 H   0  0  0  0  0  0  0  0  0  0  0  0
  -14.6949  -13.4464    0.0000 H   0  0  0  0  0  0  0  0  0  0  0  0
  -16.9993  -16.6657    0.0000 H   0  0  0  0  0  0  0  0  0  0  0  0
  -18.5183  -15.7293    0.0000 H   0  0  0  0  0  0  0  0  0  0  0  0
  -18.3217  -14.2653    0.0000 H   0  0  0  0  0  0  0  0  0  0  0  0
  -14.9091  -16.9124    0.0000 H   0  0  0  0  0  0  0  0  0  0  0  0
  -16.5310  -16.1682    0.0000 H   0  0  0  0  0  0  0  0  0  0  0  0
  -12.9264  -16.6701    0.0000 H   0  0  0  0  0  0  0  0  0  0  0  0
  -12.3257  -14.8377    0.0000 H   0  0  0  0  0  0  0  0  0  0  0  0
  -13.8447  -13.9013    0.0000 H   0  0  0  0  0  0  0  0  0  0  0  0
  -20.2808  -12.8922    0.0000 H   0  0  0  0  0  0  0  0  0  0  0  0
  1  2  1  0
  2  3  1  0
  3  4  2  0
  4  5  1  0
  5  6  2  0
  6  7  1  0
  7  8  2  0
  7  9  1  0
  9 10  1  0
 10 11  1  0
 11 12  2  0
  9 13  1  0
 13 14  1  0
 14 15  2  0
 15 16  1  0
 16 17  2  0
 17 18  1  0
 16 19  1  0
 14 20  1  0
 20 21  1  0
 21 22  2  0
 22 23  1  0
 23 24  2  0
 24 25  1  0
 25 26  2  0
 25 27  1  0
  1 28  2  0
  1 29  1  0
 29 30  1  0
 30 31  1  0
 31 32  1  0
 32 33  2  0
 32 34  1  0
 34 35  1  0
 35 36  1  0
 36 37  1  0
 37 38  1  0
 38 39  1  0
 39 40  1  0
 40 41  2  3
 40 42  1  0
 35 43  1  0
 43 44  2  0
 43 45  1  0
 45 46  1  0
 46 47  1  0
 47 48  1  0
 48 49  1  0
 48 50  2  0
 46 51  1  0
 51 52  2  0
 51 53  1  0
 53 54  1  0
 54 55  1  0
 55 56  1  0
 55 57  1  0
 57 58  1  0
 54 59  1  0
 59 60  2  0
 59 61  1  0
 62 61  1  6
 62 63  1  0
 63 64  1  0
 64 65  1  0
 65 66  1  0
 66 67  1  0
 67 68  1  0
 68 69  1  0
 62 70  1  0
 62 71  1  0
 71 72  2  0
 71 73  1  0
 73 74  1  0
 74 75  1  0
 75 76  1  0
 76 77  2  0
 76 78  1  0
 74 79  1  0
 79 80  2  0
 79 81  1  0
 81 82  1  0
 82 83  1  0
 83 84  1  0
 84 85  1  0
 85 86  1  0
 86 87  1  0
 87 88  2  3
 87 89  1  0
 82 90  1  0
 90 91  2  0
 90 92  1  0
 92 93  1  0
 93 94  1  0
 94 95  1  0
 94 96  1  0
 96 97  1  0
 93 98  1  0
 98 99  2  0
 98100  1  0
100101  1  0
101102  1  0
102103  1  0
103104  1  0
104105  1  0
105106  1  0
101107  1  0
107108  2  0
107109  1  0
109110  1  0
110111  1  0
111112  1  0
112113  1  0
113114  2  0
113115  1  0
110116  1  0
116117  2  0
116118  1  0
118119  1  0
119120  1  0
120121  1  0
121122  1  0
121123  1  0
119124  1  0
124125  2  0
124126  1  0
126127  1  0
127128  1  0
128129  1  0
129130  1  0
130131  1  0
127132  1  0
127133  1  1
133134  2  0
133135  1  0
135136  1  0
136137  1  0
137138  1  0
137139  1  0
136140  1  0
140141  2  0
140142  1  0
142143  1  0
143144  1  0
144145  1  0
145146  1  0
146147  1  0
147148  1  0
148149  2  3
148150  1  0
143151  1  0
151152  2  0
151153  1  0
153154  1  0
154155  1  0
155156  1  0
155157  1  0
157158  1  0
154159  1  0
159160  2  0
159161  1  0
  8  3  1  0
 11  6  1  0
 69131  2  0
 18 13  2  0
 22  9  1  0
 26 21  1  0
  2162  1  0
  4163  1  0
  5164  1  0
  8165  1  0
 15166  1  0
 17167  1  0
 18168  1  0
 19169  1  0
 23170  1  0
 24171  1  0
 26172  1  0
 27173  1  0
 29174  1  0
 30175  1  0
 30176  1  0
 31177  1  0
 31178  1  0
 34179  1  0
 35180  1  1
 36181  1  0
 36182  1  0
 37183  1  0
 37184  1  0
 38185  1  0
 38186  1  0
 39187  1  0
 41188  1  0
 42189  1  0
 42190  1  0
 45191  1  0
 46192  1  1
 47193  1  0
 47194  1  0
 49195  1  0
 49196  1  0
 53197  1  0
 54198  1  1
 55199  1  6
 56200  1  0
 56201  1  0
 56202  1  0
 57203  1  0
 57204  1  0
 58205  1  0
 58206  1  0
 58207  1  0
 61208  1  0
 63209  1  0
 63210  1  0
 64211  1  0
 64212  1  0
 65213  1  0
 65214  1  0
 66215  1  0
 66216  1  0
 67217  1  0
 67218  1  0
 68219  1  0
 68220  1  0
 69221  1  0
 70222  1  0
 70223  1  0
 70224  1  0
 73225  1  0
 74226  1  6
 75227  1  0
 75228  1  0
 78229  1  0
 81230  1  0
 82231  1  6
 83232  1  0
 83233  1  0
 84234  1  0
 84235  1  0
 85236  1  0
 85237  1  0
 86238  1  0
 88239  1  0
 89240  1  0
 89241  1  0
 92242  1  0
 93243  1  6
 94244  1  1
 95245  1  0
 95246  1  0
 95247  1  0
 96248  1  0
 96249  1  0
 97250  1  0
 97251  1  0
 97252  1  0
100253  1  0
101254  1  6
102255  1  0
102256  1  0
103257  1  0
103258  1  0
104259  1  0
104260  1  0
105261  1  0
105262  1  0
106263  1  0
106264  1  0
109265  1  0
110266  1  6
111267  1  0
111268  1  0
112269  1  0
112270  1  0
115271  1  0
118272  1  0
119273  1  6
120274  1  0
120275  1  0
121276  1  0
122277  1  0
122278  1  0
122279  1  0
123280  1  0
123281  1  0
123282  1  0
126283  1  0
128284  1  0
128285  1  0
129286  1  0
129287  1  0
130288  1  0
130289  1  0
131290  1  0
132291  1  0
132292  1  0
132293  1  0
135294  1  0
136295  1  1
137296  1  1
138297  1  0
139298  1  0
139299  1  0
139300  1  0
142301  1  0
143302  1  6
144303  1  0
144304  1  0
145305  1  0
145306  1  0
146307  1  0
146308  1  0
147309  1  0
149310  1  0
150311  1  0
150312  1  0
153313  1  0
154314  1  1
155315  1  1
156316  1  0
156317  1  0
156318  1  0
157319  1  0
157320  1  0
158321  1  0
158322  1  0
158323  1  0
161324  1  0
M  END
