
     RDKit          2D

411418  0  0  0  0  0  0  0  0999 V2000
  -30.8636   -4.3162    0.0000 C   0  0  0  0  0  0  0  0  0  0  0  0
  -31.8433   -5.4520    0.0000 N   0  0  0  0  0  0  0  0  0  0  0  0
  -33.3168   -5.1715    0.0000 C   0  0  0  0  0  0  0  0  0  0  0  0
  -33.8106   -3.7551    0.0000 C   0  0  0  0  0  0  0  0  0  0  0  0
  -35.2841   -3.4745    0.0000 C   0  0  0  0  0  0  0  0  0  0  0  0
  -36.2639   -4.6103    0.0000 C   0  0  0  0  0  0  0  0  0  0  0  0
  -35.7701   -6.0267    0.0000 C   0  0  0  0  0  0  0  0  0  0  0  0
  -34.2966   -6.3073    0.0000 C   0  0  0  0  0  0  0  0  0  0  0  0
  -36.9646   -6.9340    0.0000 C   0  0  0  0  0  0  0  0  0  0  0  0
  -38.1966   -6.0783    0.0000 O   0  0  0  0  0  0  0  0  0  0  0  0
  -37.7635   -4.6422    0.0000 C   0  0  0  0  0  0  0  0  0  0  0  0
  -38.6708   -3.4477    0.0000 O   0  0  0  0  0  0  0  0  0  0  0  0
  -38.2474   -7.7114    0.0000 C   0  0  0  0  0  0  0  0  0  0  0  0
  -38.2155   -9.2111    0.0000 C   0  0  0  0  0  0  0  0  0  0  0  0
  -39.4983   -9.9885    0.0000 C   0  0  0  0  0  0  0  0  0  0  0  0
  -40.8130   -9.2663    0.0000 C   0  0  0  0  0  0  0  0  0  0  0  0
  -40.8449   -7.7667    0.0000 C   0  0  0  0  0  0  0  0  0  0  0  0
  -39.5621   -6.9892    0.0000 C   0  0  0  0  0  0  0  0  0  0  0  0
  -42.0958  -10.0438    0.0000 O   0  0  0  0  0  0  0  0  0  0  0  0
  -36.9008   -9.9333    0.0000 O   0  0  0  0  0  0  0  0  0  0  0  0
  -35.6180   -9.1558    0.0000 C   0  0  0  0  0  0  0  0  0  0  0  0
  -35.6499   -7.6562    0.0000 C   0  0  0  0  0  0  0  0  0  0  0  0
  -34.3522   -7.5785    0.0000 C   0  0  0  0  0  0  0  0  0  0  0  0
  -33.6511   -7.9637    0.0000 C   0  0  0  0  0  0  0  0  0  0  0  0
  -33.6341   -8.7635    0.0000 C   0  0  0  0  0  0  0  0  0  0  0  0
  -34.3182   -9.1782    0.0000 C   0  0  0  0  0  0  0  0  0  0  0  0
  -31.7058   -9.8228    0.0000 O   0  0  0  0  0  0  0  0  0  0  0  0
  -31.3573   -2.8998    0.0000 S   0  0  0  0  0  0  0  0  0  0  0  0
  -29.3900   -4.5968    0.0000 N   0  0  0  0  0  0  0  0  0  0  0  0
  -28.4103   -3.4610    0.0000 C   0  0  0  0  0  0  0  0  0  0  0  0
  -26.9368   -3.7416    0.0000 C   0  0  0  0  0  0  0  0  0  0  0  0
  -25.9570   -2.6058    0.0000 C   0  0  0  0  0  0  0  0  0  0  0  0
  -26.4508   -1.1894    0.0000 O   0  0  0  0  0  0  0  0  0  0  0  0
  -24.4835   -2.8864    0.0000 N   0  0  0  0  0  0  0  0  0  0  0  0
  -23.5037   -1.7506    0.0000 C   0  0  0  0  0  0  0  0  0  0  0  0
  -22.9715   -0.3482    0.0000 C   0  0  0  0  0  0  0  0  0  0  0  0
  -22.9511    1.1517    0.0000 O   0  0  0  0  0  0  0  0  0  0  0  0
  -21.5312    0.0708    0.0000 C   0  0  0  0  0  0  0  0  0  0  0  0
  -22.0302   -2.0312    0.0000 C   0  0  0  0  0  0  0  0  0  0  0  0
  -21.5364   -3.4476    0.0000 O   0  0  0  0  0  0  0  0  0  0  0  0
  -21.0504   -0.8953    0.0000 N   0  0  0  0  0  0  0  0  0  0  0  0
  -19.5769   -1.1759    0.0000 C   0  0  0  0  0  0  0  0  0  0  0  0
  -18.2882   -1.9436    0.0000 C   0  0  0  0  0  0  0  0  0  0  0  0
  -18.3087   -3.4434    0.0000 C   0  0  0  0  0  0  0  0  0  0  0  0
  -17.0200   -4.2111    0.0000 C   0  0  0  0  0  0  0  0  0  0  0  0
  -17.0404   -5.7109    0.0000 N   0  0  0  0  0  0  0  0  0  0  0  0
  -15.7517   -6.4786    0.0000 C   0  0  0  0  0  0  0  0  0  0  0  0
  -15.7722   -7.9784    0.0000 N   0  0  0  0  0  0  0  0  0  0  0  0
  -14.4426   -5.7464    0.0000 N   0  0  0  0  0  0  0  0  0  0  0  0
  -18.5971   -0.0401    0.0000 C   0  0  0  0  0  0  0  0  0  0  0  0
  -19.0909    1.3763    0.0000 O   0  0  0  0  0  0  0  0  0  0  0  0
  -17.1236   -0.3207    0.0000 N   0  0  0  0  0  0  0  0  0  0  0  0
  -16.1439    0.8151    0.0000 C   0  0  0  0  0  0  0  0  0  0  0  0
  -15.6117    2.2175    0.0000 C   0  0  0  0  0  0  0  0  0  0  0  0
  -14.1310    2.4578    0.0000 C   0  0  0  0  0  0  0  0  0  0  0  0
  -13.5988    3.8602    0.0000 C   0  0  0  0  0  0  0  0  0  0  0  0
  -12.2204    4.4517    0.0000 N   0  0  0  0  0  0  0  0  0  0  0  0
  -14.8003    4.7583    0.0000 O   0  0  0  0  0  0  0  0  0  0  0  0
  -14.6703    0.5345    0.0000 C   0  0  0  0  0  0  0  0  0  0  0  0
  -14.3529   -0.9315    0.0000 O   0  0  0  0  0  0  0  0  0  0  0  0
  -13.6906    1.6703    0.0000 N   0  0  0  0  0  0  0  0  0  0  0  0
  -12.2171    1.3897    0.0000 C   0  0  0  0  0  0  0  0  0  0  0  0
  -11.4524    0.0992    0.0000 C   0  0  0  0  0  0  0  0  0  0  0  0
  -10.3414   -0.9085    0.0000 C   0  0  0  0  0  0  0  0  0  0  0  0
   -8.9827   -1.5440    0.0000 C   0  0  0  0  0  0  0  0  0  0  0  0
   -7.4970   -1.7508    0.0000 C   0  0  0  0  0  0  0  0  0  0  0  0
  -13.2221    0.2762    0.0000 C   0  0  0  0  0  0  0  0  0  0  0  0
  -12.5673    2.8483    0.0000 C   0  0  0  0  0  0  0  0  0  0  0  0
  -13.3333    3.0689    0.0000 O   0  0  0  0  0  0  0  0  0  0  0  0
  -12.4721    4.3452    0.0000 N   0  0  0  0  0  0  0  0  0  0  0  0
  -11.9399    5.7476    0.0000 C   0  0  0  0  0  0  0  0  0  0  0  0
  -12.6393    7.0746    0.0000 C   0  0  0  0  0  0  0  0  0  0  0  0
  -14.1382    7.1325    0.0000 C   0  0  0  0  0  0  0  0  0  0  0  0
  -14.8375    8.4595    0.0000 C   0  0  0  0  0  0  0  0  0  0  0  0
  -16.3364    8.5173    0.0000 N   0  0  0  0  0  0  0  0  0  0  0  0
  -17.0358    9.8443    0.0000 C   0  0  0  0  0  0  0  0  0  0  0  0
  -18.5347    9.9021    0.0000 N   0  0  0  0  0  0  0  0  0  0  0  0
  -16.2362   11.1135    0.0000 N   0  0  0  0  0  0  0  0  0  0  0  0
  -11.0180    6.9309    0.0000 C   0  0  0  0  0  0  0  0  0  0  0  0
  -12.0506    8.0189    0.0000 O   0  0  0  0  0  0  0  0  0  0  0  0
   -9.7883    7.7898    0.0000 N   0  0  0  0  0  0  0  0  0  0  0  0
   -8.3600    8.2481    0.0000 C   0  0  0  0  0  0  0  0  0  0  0  0
   -7.7586    9.6222    0.0000 C   0  0  0  0  0  0  0  0  0  0  0  0
   -8.6479   10.8302    0.0000 C   0  0  0  0  0  0  0  0  0  0  0  0
   -8.0464   12.2043    0.0000 C   0  0  0  0  0  0  0  0  0  0  0  0
   -8.9358   13.4123    0.0000 N   0  0  0  0  0  0  0  0  0  0  0  0
   -8.3343   14.7864    0.0000 C   0  0  0  0  0  0  0  0  0  0  0  0
   -9.2236   15.9943    0.0000 N   0  0  0  0  0  0  0  0  0  0  0  0
   -6.8435   14.9526    0.0000 N   0  0  0  0  0  0  0  0  0  0  0  0
   -6.8601    8.2651    0.0000 C   0  0  0  0  0  0  0  0  0  0  0  0
   -6.6533    9.7507    0.0000 O   0  0  0  0  0  0  0  0  0  0  0  0
   -5.4218    7.8391    0.0000 N   0  0  0  0  0  0  0  0  0  0  0  0
   -4.1730    7.0082    0.0000 C   0  0  0  0  0  0  0  0  0  0  0  0
   -2.7237    7.3947    0.0000 C   0  0  0  0  0  0  0  0  0  0  0  0
   -2.3338    8.8432    0.0000 C   0  0  0  0  0  0  0  0  0  0  0  0
   -0.8844    9.2297    0.0000 C   0  0  0  0  0  0  0  0  0  0  0  0
   -0.4945   10.6782    0.0000 N   0  0  0  0  0  0  0  0  0  0  0  0
    0.1750    8.1678    0.0000 O   0  0  0  0  0  0  0  0  0  0  0  0
   -3.2246    5.8461    0.0000 C   0  0  0  0  0  0  0  0  0  0  0  0
   -1.9341    6.6107    0.0000 O   0  0  0  0  0  0  0  0  0  0  0  0
   -2.6608    4.4561    0.0000 N   0  0  0  0  0  0  0  0  0  0  0  0
   -2.5319    2.9616    0.0000 C   0  0  0  0  0  0  0  0  0  0  0  0
   -2.8491    1.4956    0.0000 C   0  0  0  0  0  0  0  0  0  0  0  0
   -3.5844    0.1881    0.0000 C   0  0  0  0  0  0  0  0  0  0  0  0
   -4.6724   -0.8445    0.0000 C   0  0  0  0  0  0  0  0  0  0  0  0
   -6.0164   -1.5105    0.0000 C   0  0  0  0  0  0  0  0  0  0  0  0
   -1.2227    3.6939    0.0000 C   0  0  0  0  0  0  0  0  0  0  0  0
   -1.3260    2.0695    0.0000 C   0  0  0  0  0  0  0  0  0  0  0  0
   -1.1300    0.5824    0.0000 O   0  0  0  0  0  0  0  0  0  0  0  0
    0.0495    2.6677    0.0000 N   0  0  0  0  0  0  0  0  0  0  0  0
    1.2554    1.7756    0.0000 C   0  0  0  0  0  0  0  0  0  0  0  0
    2.0834    0.5248    0.0000 C   0  0  0  0  0  0  0  0  0  0  0  0
    1.4142   -0.8176    0.0000 C   0  0  0  0  0  0  0  0  0  0  0  0
    2.2422   -2.0684    0.0000 C   0  0  0  0  0  0  0  0  0  0  0  0
    1.5730   -3.4109    0.0000 N   0  0  0  0  0  0  0  0  0  0  0  0
    2.4010   -4.6616    0.0000 C   0  0  0  0  0  0  0  0  0  0  0  0
    1.7318   -6.0041    0.0000 N   0  0  0  0  0  0  0  0  0  0  0  0
    3.8982   -4.5699    0.0000 N   0  0  0  0  0  0  0  0  0  0  0  0
    2.6309    2.3738    0.0000 C   0  0  0  0  0  0  0  0  0  0  0  0
    2.8006    3.8642    0.0000 O   0  0  0  0  0  0  0  0  0  0  0  0
    3.8368    1.4817    0.0000 N   0  0  0  0  0  0  0  0  0  0  0  0
    5.2123    2.0799    0.0000 C   0  0  0  0  0  0  0  0  0  0  0  0
    6.3003    3.1125    0.0000 C   0  0  0  0  0  0  0  0  0  0  0  0
    7.7386    2.6866    0.0000 C   0  0  0  0  0  0  0  0  0  0  0  0
    8.8266    3.7192    0.0000 C   0  0  0  0  0  0  0  0  0  0  0  0
   10.2648    3.2933    0.0000 N   0  0  0  0  0  0  0  0  0  0  0  0
   11.3528    4.3259    0.0000 C   0  0  0  0  0  0  0  0  0  0  0  0
   12.7284    3.7279    0.0000 N   0  0  0  0  0  0  0  0  0  0  0  0
   11.0025    5.7845    0.0000 N   0  0  0  0  0  0  0  0  0  0  0  0
    6.4182    1.1878    0.0000 C   0  0  0  0  0  0  0  0  0  0  0  0
    6.2485   -0.3026    0.0000 O   0  0  0  0  0  0  0  0  0  0  0  0
    7.7937    1.7860    0.0000 N   0  0  0  0  0  0  0  0  0  0  0  0
    8.9996    0.8938    0.0000 C   0  0  0  0  0  0  0  0  0  0  0  0
    9.8276   -0.3569    0.0000 C   0  0  0  0  0  0  0  0  0  0  0  0
    9.1584   -1.6994    0.0000 C   0  0  0  0  0  0  0  0  0  0  0  0
    9.9864   -2.9501    0.0000 C   0  0  0  0  0  0  0  0  0  0  0  0
    9.3172   -4.2926    0.0000 N   0  0  0  0  0  0  0  0  0  0  0  0
   10.1452   -5.5434    0.0000 C   0  0  0  0  0  0  0  0  0  0  0  0
    9.4760   -6.8858    0.0000 N   0  0  0  0  0  0  0  0  0  0  0  0
   11.6424   -5.4517    0.0000 N   0  0  0  0  0  0  0  0  0  0  0  0
   10.3751    1.4921    0.0000 C   0  0  0  0  0  0  0  0  0  0  0  0
   10.9004    2.8971    0.0000 O   0  0  0  0  0  0  0  0  0  0  0  0
   11.5810    0.5999    0.0000 N   0  0  0  0  0  0  0  0  0  0  0  0
   12.9565    1.1982    0.0000 C   0  0  0  0  0  0  0  0  0  0  0  0
   14.0445    2.2308    0.0000 C   0  0  0  0  0  0  0  0  0  0  0  0
   15.4828    1.8049    0.0000 C   0  0  0  0  0  0  0  0  0  0  0  0
   15.9836    0.3909    0.0000 C   0  0  0  0  0  0  0  0  0  0  0  0
   17.4831    0.4303    0.0000 N   0  0  0  0  0  0  0  0  0  0  0  0
   17.9090    1.8686    0.0000 C   0  0  0  0  0  0  0  0  0  0  0  0
   19.2628    2.5145    0.0000 C   0  0  0  0  0  0  0  0  0  0  0  0
   19.3804    4.0098    0.0000 C   0  0  0  0  0  0  0  0  0  0  0  0
   18.1441    4.8594    0.0000 C   0  0  0  0  0  0  0  0  0  0  0  0
   16.7903    4.2135    0.0000 C   0  0  0  0  0  0  0  0  0  0  0  0
   16.6727    2.7181    0.0000 C   0  0  0  0  0  0  0  0  0  0  0  0
   14.1624    0.3060    0.0000 C   0  0  0  0  0  0  0  0  0  0  0  0
   13.9927   -1.1843    0.0000 O   0  0  0  0  0  0  0  0  0  0  0  0
   15.5379    0.9043    0.0000 N   0  0  0  0  0  0  0  0  0  0  0  0
   16.7438    0.0121    0.0000 C   0  0  0  0  0  0  0  0  0  0  0  0
   17.5718   -1.2386    0.0000 C   0  0  0  0  0  0  0  0  0  0  0  0
   16.9026   -2.5811    0.0000 C   0  0  0  0  0  0  0  0  0  0  0  0
   17.7306   -3.8319    0.0000 C   0  0  0  0  0  0  0  0  0  0  0  0
   17.0614   -5.1743    0.0000 N   0  0  0  0  0  0  0  0  0  0  0  0
   17.8894   -6.4251    0.0000 C   0  0  0  0  0  0  0  0  0  0  0  0
   17.2202   -7.7675    0.0000 N   0  0  0  0  0  0  0  0  0  0  0  0
   19.3866   -6.3334    0.0000 N   0  0  0  0  0  0  0  0  0  0  0  0
   18.1193    0.6103    0.0000 C   0  0  0  0  0  0  0  0  0  0  0  0
   18.6446    2.0154    0.0000 O   0  0  0  0  0  0  0  0  0  0  0  0
   19.3252   -0.2818    0.0000 N   0  0  0  0  0  0  0  0  0  0  0  0
   20.7007    0.3164    0.0000 C   0  0  0  0  0  0  0  0  0  0  0  0
   21.7887    1.3490    0.0000 C   0  0  0  0  0  0  0  0  0  0  0  0
   23.2270    0.9231    0.0000 C   0  0  0  0  0  0  0  0  0  0  0  0
   24.3150    1.9558    0.0000 C   0  0  0  0  0  0  0  0  0  0  0  0
   25.7944    1.7083    0.0000 O   0  0  0  0  0  0  0  0  0  0  0  0
   23.9647    3.4143    0.0000 O   0  0  0  0  0  0  0  0  0  0  0  0
   21.9066   -0.5757    0.0000 C   0  0  0  0  0  0  0  0  0  0  0  0
   21.7369   -2.0661    0.0000 O   0  0  0  0  0  0  0  0  0  0  0  0
   23.2821    0.0225    0.0000 N   0  0  0  0  0  0  0  0  0  0  0  0
   24.4880   -0.8696    0.0000 C   0  0  0  0  0  0  0  0  0  0  0  0
   25.3160   -2.1204    0.0000 C   0  0  0  0  0  0  0  0  0  0  0  0
   24.6468   -3.4628    0.0000 C   0  0  0  0  0  0  0  0  0  0  0  0
   25.4748   -4.7136    0.0000 C   0  0  0  0  0  0  0  0  0  0  0  0
   24.8056   -6.0561    0.0000 N   0  0  0  0  0  0  0  0  0  0  0  0
   25.6336   -7.3068    0.0000 C   0  0  0  0  0  0  0  0  0  0  0  0
   24.9644   -8.6493    0.0000 N   0  0  0  0  0  0  0  0  0  0  0  0
   27.1308   -7.2151    0.0000 N   0  0  0  0  0  0  0  0  0  0  0  0
   25.8635   -0.2714    0.0000 C   0  0  0  0  0  0  0  0  0  0  0  0
   26.2136    1.1872    0.0000 O   0  0  0  0  0  0  0  0  0  0  0  0
   27.0694   -1.1635    0.0000 N   0  0  0  0  0  0  0  0  0  0  0  0
   28.4449   -0.5653    0.0000 C   0  0  0  0  0  0  0  0  0  0  0  0
   29.5329    0.4673    0.0000 C   0  0  0  0  0  0  0  0  0  0  0  0
   30.9712    0.0414    0.0000 C   0  0  0  0  0  0  0  0  0  0  0  0
   32.0591    1.0740    0.0000 C   0  0  0  0  0  0  0  0  0  0  0  0
   33.5386    0.8266    0.0000 N   0  0  0  0  0  0  0  0  0  0  0  0
   31.7089    2.5325    0.0000 O   0  0  0  0  0  0  0  0  0  0  0  0
   29.6508   -1.4574    0.0000 C   0  0  0  0  0  0  0  0  0  0  0  0
   29.4811   -2.9478    0.0000 O   0  0  0  0  0  0  0  0  0  0  0  0
   31.0263   -0.8592    0.0000 N   0  0  0  0  0  0  0  0  0  0  0  0
   32.2322   -1.7514    0.0000 C   0  0  0  0  0  0  0  0  0  0  0  0
   33.0602   -3.0021    0.0000 C   0  0  0  0  0  0  0  0  0  0  0  0
   32.3910   -4.3446    0.0000 C   0  0  0  0  0  0  0  0  0  0  0  0
   33.2190   -5.5953    0.0000 C   0  0  0  0  0  0  0  0  0  0  0  0
   32.5498   -6.9378    0.0000 N   0  0  0  0  0  0  0  0  0  0  0  0
   33.3778   -8.1886    0.0000 C   0  0  0  0  0  0  0  0  0  0  0  0
   32.7086   -9.5310    0.0000 N   0  0  0  0  0  0  0  0  0  0  0  0
   34.8750   -8.0969    0.0000 N   0  0  0  0  0  0  0  0  0  0  0  0
   33.6077   -1.1531    0.0000 C   0  0  0  0  0  0  0  0  0  0  0  0
   34.9133   -1.8916    0.0000 O   0  0  0  0  0  0  0  0  0  0  0  0
   33.9578    0.3055    0.0000 O   0  0  0  0  0  0  0  0  0  0  0  0
  -31.1806   -6.7977    0.0000 H   0  0  0  0  0  0  0  0  0  0  0  0
  -32.8308   -2.6192    0.0000 H   0  0  0  0  0  0  0  0  0  0  0  0
  -35.7779   -2.0581    0.0000 H   0  0  0  0  0  0  0  0  0  0  0  0
  -33.4748   -7.5621    0.0000 H   0  0  0  0  0  0  0  0  0  0  0  0
  -39.4664  -11.4882    0.0000 H   0  0  0  0  0  0  0  0  0  0  0  0
  -42.1596   -7.0445    0.0000 H   0  0  0  0  0  0  0  0  0  0  0  0
  -39.5940   -5.4896    0.0000 H   0  0  0  0  0  0  0  0  0  0  0  0
  -43.4105   -9.3216    0.0000 H   0  0  0  0  0  0  0  0  0  0  0  0
  -34.3990   -5.3790    0.0000 H   0  0  0  0  0  0  0  0  0  0  0  0
  -31.6844   -6.9856    0.0000 H   0  0  0  0  0  0  0  0  0  0  0  0
  -34.2714  -11.3777    0.0000 H   0  0  0  0  0  0  0  0  0  0  0  0
  -31.6739  -11.3224    0.0000 H   0  0  0  0  0  0  0  0  0  0  0  0
  -28.8963   -6.0132    0.0000 H   0  0  0  0  0  0  0  0  0  0  0  0
  -27.8781   -2.0586    0.0000 H   0  0  0  0  0  0  0  0  0  0  0  0
  -29.6990   -2.6934    0.0000 H   0  0  0  0  0  0  0  0  0  0  0  0
  -25.6481   -4.5092    0.0000 H   0  0  0  0  0  0  0  0  0  0  0  0
  -27.4690   -5.1440    0.0000 H   0  0  0  0  0  0  0  0  0  0  0  0
  -23.9897   -4.3028    0.0000 H   0  0  0  0  0  0  0  0  0  0  0  0
  -24.7924   -0.9829    0.0000 H   0  0  0  0  0  0  0  0  0  0  0  0
  -24.4450   -0.0676    0.0000 H   0  0  0  0  0  0  0  0  0  0  0  0
  -24.2397    1.9193    0.0000 H   0  0  0  0  0  0  0  0  0  0  0  0
  -20.9587    1.2946    0.0000 H   0  0  0  0  0  0  0  0  0  0  0  0
  -20.0174   -0.3884    0.0000 H   0  0  0  0  0  0  0  0  0  0  0  0
  -20.8047   -1.4417    0.0000 H   0  0  0  0  0  0  0  0  0  0  0  0
  -21.3679    0.5707    0.0000 H   0  0  0  0  0  0  0  0  0  0  0  0
  -20.2761   -2.5030    0.0000 H   0  0  0  0  0  0  0  0  0  0  0  0
  -16.8147   -2.2242    0.0000 H   0  0  0  0  0  0  0  0  0  0  0  0
  -17.4325   -0.7116    0.0000 H   0  0  0  0  0  0  0  0  0  0  0  0
  -18.8409   -4.8459    0.0000 H   0  0  0  0  0  0  0  0  0  0  0  0
  -19.8054   -3.3446    0.0000 H   0  0  0  0  0  0  0  0  0  0  0  0
  -15.5465   -4.4917    0.0000 H   0  0  0  0  0  0  0  0  0  0  0  0
  -16.3208   -2.8840    0.0000 H   0  0  0  0  0  0  0  0  0  0  0  0
  -18.3496   -6.4432    0.0000 H   0  0  0  0  0  0  0  0  0  0  0  0
  -14.4835   -8.7461    0.0000 H   0  0  0  0  0  0  0  0  0  0  0  0
  -17.0813   -8.7107    0.0000 H   0  0  0  0  0  0  0  0  0  0  0  0
  -13.1539   -6.5140    0.0000 H   0  0  0  0  0  0  0  0  0  0  0  0
  -14.4221   -4.2465    0.0000 H   0  0  0  0  0  0  0  0  0  0  0  0
  -16.4609   -1.6664    0.0000 H   0  0  0  0  0  0  0  0  0  0  0  0
  -17.4326    1.5827    0.0000 H   0  0  0  0  0  0  0  0  0  0  0  0
  -15.5912    3.7174    0.0000 H   0  0  0  0  0  0  0  0  0  0  0  0
  -17.0852    2.4981    0.0000 H   0  0  0  0  0  0  0  0  0  0  0  0
  -12.6334    2.5421    0.0000 H   0  0  0  0  0  0  0  0  0  0  0  0
  -13.6125    1.0503    0.0000 H   0  0  0  0  0  0  0  0  0  0  0  0
  -11.3505    5.3182    0.0000 H   0  0  0  0  0  0  0  0  0  0  0  0
  -11.1698    2.9384    0.0000 H   0  0  0  0  0  0  0  0  0  0  0  0
  -14.0080    3.1363    0.0000 H   0  0  0  0  0  0  0  0  0  0  0  0
  -12.9118   -0.2474    0.0000 H   0  0  0  0  0  0  0  0  0  0  0  0
  -11.9141   -1.3280    0.0000 H   0  0  0  0  0  0  0  0  0  0  0  0
  -11.5313   -1.8218    0.0000 H   0  0  0  0  0  0  0  0  0  0  0  0
  -10.5445   -2.3947    0.0000 H   0  0  0  0  0  0  0  0  0  0  0  0
   -9.9932   -2.6526    0.0000 H   0  0  0  0  0  0  0  0  0  0  0  0
   -8.5601   -2.9833    0.0000 H   0  0  0  0  0  0  0  0  0  0  0  0
   -7.4801   -3.2507    0.0000 H   0  0  0  0  0  0  0  0  0  0  0  0
  -12.8263   -1.3420    0.0000 H   0  0  0  0  0  0  0  0  0  0  0  0
  -14.1819   -0.8221    0.0000 H   0  0  0  0  0  0  0  0  0  0  0  0
  -14.4171    0.8325    0.0000 H   0  0  0  0  0  0  0  0  0  0  0  0
  -13.8886    4.8388    0.0000 H   0  0  0  0  0  0  0  0  0  0  0  0
  -13.4148    5.4741    0.0000 H   0  0  0  0  0  0  0  0  0  0  0  0
  -12.6599    8.5745    0.0000 H   0  0  0  0  0  0  0  0  0  0  0  0
  -11.3644    7.8649    0.0000 H   0  0  0  0  0  0  0  0  0  0  0  0
  -15.5665    6.6742    0.0000 H   0  0  0  0  0  0  0  0  0  0  0  0
  -14.3005    5.6413    0.0000 H   0  0  0  0  0  0  0  0  0  0  0  0
  -15.0408    9.9456    0.0000 H   0  0  0  0  0  0  0  0  0  0  0  0
  -13.4758    9.0884    0.0000 H   0  0  0  0  0  0  0  0  0  0  0  0
  -17.1359    7.2482    0.0000 H   0  0  0  0  0  0  0  0  0  0  0  0
  -19.2340   11.2291    0.0000 H   0  0  0  0  0  0  0  0  0  0  0  0
  -19.3342    8.6330    0.0000 H   0  0  0  0  0  0  0  0  0  0  0  0
  -16.9356   12.4404    0.0000 H   0  0  0  0  0  0  0  0  0  0  0  0
  -14.7373   11.0556    0.0000 H   0  0  0  0  0  0  0  0  0  0  0  0
  -10.4543    9.1338    0.0000 H   0  0  0  0  0  0  0  0  0  0  0  0
   -9.4934    9.2307    0.0000 H   0  0  0  0  0  0  0  0  0  0  0  0
   -6.5988   10.5735    0.0000 H   0  0  0  0  0  0  0  0  0  0  0  0
   -6.3458    9.1182    0.0000 H   0  0  0  0  0  0  0  0  0  0  0  0
   -9.8967   11.6611    0.0000 H   0  0  0  0  0  0  0  0  0  0  0  0
   -9.8076    9.8789    0.0000 H   0  0  0  0  0  0  0  0  0  0  0  0
   -7.0113   13.2899    0.0000 H   0  0  0  0  0  0  0  0  0  0  0  0
   -6.7056   11.5318    0.0000 H   0  0  0  0  0  0  0  0  0  0  0  0
  -10.4265   13.2461    0.0000 H   0  0  0  0  0  0  0  0  0  0  0  0
   -8.6222   17.3685    0.0000 H   0  0  0  0  0  0  0  0  0  0  0  0
  -10.7144   15.8281    0.0000 H   0  0  0  0  0  0  0  0  0  0  0  0
   -6.2421   16.3267    0.0000 H   0  0  0  0  0  0  0  0  0  0  0  0
   -5.9542   13.7447    0.0000 H   0  0  0  0  0  0  0  0  0  0  0  0
   -4.7863    9.1979    0.0000 H   0  0  0  0  0  0  0  0  0  0  0  0
   -4.1115    8.5070    0.0000 H   0  0  0  0  0  0  0  0  0  0  0  0
   -1.2295    7.2623    0.0000 H   0  0  0  0  0  0  0  0  0  0  0  0
   -2.2369    5.9759    0.0000 H   0  0  0  0  0  0  0  0  0  0  0  0
   -2.4627   10.3376    0.0000 H   0  0  0  0  0  0  0  0  0  0  0  0
   -3.8006    9.1568    0.0000 H   0  0  0  0  0  0  0  0  0  0  0  0
    0.9549   11.0647    0.0000 H   0  0  0  0  0  0  0  0  0  0  0  0
   -1.5539   11.7401    0.0000 H   0  0  0  0  0  0  0  0  0  0  0  0
   -1.2023    4.8064    0.0000 H   0  0  0  0  0  0  0  0  0  0  0  0
   -1.9598    0.2876    0.0000 H   0  0  0  0  0  0  0  0  0  0  0  0
   -1.3499    1.4451    0.0000 H   0  0  0  0  0  0  0  0  0  0  0  0
   -2.9216   -1.1575    0.0000 H   0  0  0  0  0  0  0  0  0  0  0  0
   -2.1667   -0.3019    0.0000 H   0  0  0  0  0  0  0  0  0  0  0  0
   -4.6180   -2.3435    0.0000 H   0  0  0  0  0  0  0  0  0  0  0  0
   -3.3631   -1.5765    0.0000 H   0  0  0  0  0  0  0  0  0  0  0  0
   -5.5581   -2.9388    0.0000 H   0  0  0  0  0  0  0  0  0  0  0  0
    0.2134    3.2609    0.0000 H   0  0  0  0  0  0  0  0  0  0  0  0
   -0.3887    4.9406    0.0000 H   0  0  0  0  0  0  0  0  0  0  0  0
   -1.8618    5.0509    0.0000 H   0  0  0  0  0  0  0  0  0  0  0  0
    0.3996    4.1263    0.0000 H   0  0  0  0  0  0  0  0  0  0  0  0
    0.0497    0.8833    0.0000 H   0  0  0  0  0  0  0  0  0  0  0  0
    3.2893   -0.3673    0.0000 H   0  0  0  0  0  0  0  0  0  0  0  0
    3.3889    1.2635    0.0000 H   0  0  0  0  0  0  0  0  0  0  0  0
    0.3262   -1.8503    0.0000 H   0  0  0  0  0  0  0  0  0  0  0  0
    0.1086   -0.0791    0.0000 H   0  0  0  0  0  0  0  0  0  0  0  0
    3.4481   -2.9605    0.0000 H   0  0  0  0  0  0  0  0  0  0  0  0
    3.4479   -1.1761    0.0000 H   0  0  0  0  0  0  0  0  0  0  0  0
    0.0758   -3.5025    0.0000 H   0  0  0  0  0  0  0  0  0  0  0  0
    2.5598   -7.2548    0.0000 H   0  0  0  0  0  0  0  0  0  0  0  0
    0.2346   -6.0958    0.0000 H   0  0  0  0  0  0  0  0  0  0  0  0
    4.7262   -5.8207    0.0000 H   0  0  0  0  0  0  0  0  0  0  0  0
    4.5674   -3.2275    0.0000 H   0  0  0  0  0  0  0  0  0  0  0  0
    3.8500   -0.0183    0.0000 H   0  0  0  0  0  0  0  0  0  0  0  0
    4.3843    3.3307    0.0000 H   0  0  0  0  0  0  0  0  0  0  0  0
    6.8009    4.5265    0.0000 H   0  0  0  0  0  0  0  0  0  0  0  0
    5.0945    4.0047    0.0000 H   0  0  0  0  0  0  0  0  0  0  0  0
    8.9444    1.7945    0.0000 H   0  0  0  0  0  0  0  0  0  0  0  0
    7.7781    1.1871    0.0000 H   0  0  0  0  0  0  0  0  0  0  0  0
    9.4958    5.0617    0.0000 H   0  0  0  0  0  0  0  0  0  0  0  0
    7.7384    4.7517    0.0000 H   0  0  0  0  0  0  0  0  0  0  0  0
   10.9576    1.9629    0.0000 H   0  0  0  0  0  0  0  0  0  0  0  0
   13.8791    4.9326    0.0000 H   0  0  0  0  0  0  0  0  0  0  0  0
   12.9815    2.4007    0.0000 H   0  0  0  0  0  0  0  0  0  0  0  0
   12.0905    6.8171    0.0000 H   0  0  0  0  0  0  0  0  0  0  0  0
    9.5643    6.2104    0.0000 H   0  0  0  0  0  0  0  0  0  0  0  0
    8.3190    3.1910    0.0000 H   0  0  0  0  0  0  0  0  0  0  0  0
    7.7938    0.0016    0.0000 H   0  0  0  0  0  0  0  0  0  0  0  0
   11.0334   -1.2491    0.0000 H   0  0  0  0  0  0  0  0  0  0  0  0
   11.1331    0.3817    0.0000 H   0  0  0  0  0  0  0  0  0  0  0  0
    8.0704   -2.7320    0.0000 H   0  0  0  0  0  0  0  0  0  0  0  0
    7.8528   -0.9609    0.0000 H   0  0  0  0  0  0  0  0  0  0  0  0
   11.1923   -3.8423    0.0000 H   0  0  0  0  0  0  0  0  0  0  0  0
   11.1921   -2.0578    0.0000 H   0  0  0  0  0  0  0  0  0  0  0  0
    7.8200   -4.3843    0.0000 H   0  0  0  0  0  0  0  0  0  0  0  0
   10.3040   -8.1366    0.0000 H   0  0  0  0  0  0  0  0  0  0  0  0
    7.9788   -6.9775    0.0000 H   0  0  0  0  0  0  0  0  0  0  0  0
   12.4704   -6.7024    0.0000 H   0  0  0  0  0  0  0  0  0  0  0  0
   12.3116   -4.1092    0.0000 H   0  0  0  0  0  0  0  0  0  0  0  0
   11.5942   -0.9000    0.0000 H   0  0  0  0  0  0  0  0  0  0  0  0
   12.1285    2.4489    0.0000 H   0  0  0  0  0  0  0  0  0  0  0  0
   14.7137    3.5732    0.0000 H   0  0  0  0  0  0  0  0  0  0  0  0
   12.6586    2.8046    0.0000 H   0  0  0  0  0  0  0  0  0  0  0  0
   14.9897   -0.7325    0.0000 H   0  0  0  0  0  0  0  0  0  0  0  0
   18.5346   -0.6394    0.0000 H   0  0  0  0  0  0  0  0  0  0  0  0
   20.4991    1.6649    0.0000 H   0  0  0  0  0  0  0  0  0  0  0  0
   20.7342    4.6557    0.0000 H   0  0  0  0  0  0  0  0  0  0  0  0
   18.2617    6.3547    0.0000 H   0  0  0  0  0  0  0  0  0  0  0  0
   15.5541    5.0630    0.0000 H   0  0  0  0  0  0  0  0  0  0  0  0
   16.0632    2.3093    0.0000 H   0  0  0  0  0  0  0  0  0  0  0  0
   15.6558   -1.0205    0.0000 H   0  0  0  0  0  0  0  0  0  0  0  0
   18.7776   -2.1308    0.0000 H   0  0  0  0  0  0  0  0  0  0  0  0
   18.9576   -0.6646    0.0000 H   0  0  0  0  0  0  0  0  0  0  0  0
   15.8146   -3.6137    0.0000 H   0  0  0  0  0  0  0  0  0  0  0  0
   15.5970   -1.8426    0.0000 H   0  0  0  0  0  0  0  0  0  0  0  0
   18.9364   -4.7240    0.0000 H   0  0  0  0  0  0  0  0  0  0  0  0
   18.9363   -2.9396    0.0000 H   0  0  0  0  0  0  0  0  0  0  0  0
   15.5642   -5.2660    0.0000 H   0  0  0  0  0  0  0  0  0  0  0  0
   18.0482   -9.0183    0.0000 H   0  0  0  0  0  0  0  0  0  0  0  0
   15.7230   -7.8592    0.0000 H   0  0  0  0  0  0  0  0  0  0  0  0
   20.2146   -7.5842    0.0000 H   0  0  0  0  0  0  0  0  0  0  0  0
   20.0558   -4.9909    0.0000 H   0  0  0  0  0  0  0  0  0  0  0  0
   19.3384   -1.7817    0.0000 H   0  0  0  0  0  0  0  0  0  0  0  0
   19.7264    1.4569    0.0000 H   0  0  0  0  0  0  0  0  0  0  0  0
   22.4579    2.6915    0.0000 H   0  0  0  0  0  0  0  0  0  0  0  0
   20.7006    2.3815    0.0000 H   0  0  0  0  0  0  0  0  0  0  0  0
   24.4328    0.0310    0.0000 H   0  0  0  0  0  0  0  0  0  0  0  0
   23.2665   -0.5763    0.0000 H   0  0  0  0  0  0  0  0  0  0  0  0
   23.8074    1.4275    0.0000 H   0  0  0  0  0  0  0  0  0  0  0  0
   23.2822   -1.7619    0.0000 H   0  0  0  0  0  0  0  0  0  0  0  0
   26.5218   -3.0125    0.0000 H   0  0  0  0  0  0  0  0  0  0  0  0
   26.6215   -1.3817    0.0000 H   0  0  0  0  0  0  0  0  0  0  0  0
   23.5588   -4.4955    0.0000 H   0  0  0  0  0  0  0  0  0  0  0  0
   23.3412   -2.7243    0.0000 H   0  0  0  0  0  0  0  0  0  0  0  0
   26.6806   -5.6057    0.0000 H   0  0  0  0  0  0  0  0  0  0  0  0
   26.6805   -3.8213    0.0000 H   0  0  0  0  0  0  0  0  0  0  0  0
   23.3084   -6.1477    0.0000 H   0  0  0  0  0  0  0  0  0  0  0  0
   25.7924   -9.9000    0.0000 H   0  0  0  0  0  0  0  0  0  0  0  0
   23.4672   -8.7410    0.0000 H   0  0  0  0  0  0  0  0  0  0  0  0
   27.9588   -8.4659    0.0000 H   0  0  0  0  0  0  0  0  0  0  0  0
   27.8000   -5.8727    0.0000 H   0  0  0  0  0  0  0  0  0  0  0  0
   27.0826   -2.6635    0.0000 H   0  0  0  0  0  0  0  0  0  0  0  0
   27.6169    0.6855    0.0000 H   0  0  0  0  0  0  0  0  0  0  0  0
   30.2021    1.8098    0.0000 H   0  0  0  0  0  0  0  0  0  0  0  0
   28.3270    1.3595    0.0000 H   0  0  0  0  0  0  0  0  0  0  0  0
   32.1770   -0.8507    0.0000 H   0  0  0  0  0  0  0  0  0  0  0  0
   31.0107   -1.4581    0.0000 H   0  0  0  0  0  0  0  0  0  0  0  0
   34.5854    1.6807    0.0000 H   0  0  0  0  0  0  0  0  0  0  0  0
   34.2346   -0.6870    0.0000 H   0  0  0  0  0  0  0  0  0  0  0  0
   31.5516    0.5458    0.0000 H   0  0  0  0  0  0  0  0  0  0  0  0
   31.0264   -2.6436    0.0000 H   0  0  0  0  0  0  0  0  0  0  0  0
   34.3658   -3.7406    0.0000 H   0  0  0  0  0  0  0  0  0  0  0  0
   34.2659   -2.1098    0.0000 H   0  0  0  0  0  0  0  0  0  0  0  0
   31.3030   -5.3772    0.0000 H   0  0  0  0  0  0  0  0  0  0  0  0
   31.0854   -3.6061    0.0000 H   0  0  0  0  0  0  0  0  0  0  0  0
   34.4248   -6.4875    0.0000 H   0  0  0  0  0  0  0  0  0  0  0  0
   34.4247   -4.7030    0.0000 H   0  0  0  0  0  0  0  0  0  0  0  0
   31.0526   -7.0295    0.0000 H   0  0  0  0  0  0  0  0  0  0  0  0
   33.5366  -10.7818    0.0000 H   0  0  0  0  0  0  0  0  0  0  0  0
   31.2114   -9.6227    0.0000 H   0  0  0  0  0  0  0  0  0  0  0  0
   35.7030   -9.3476    0.0000 H   0  0  0  0  0  0  0  0  0  0  0  0
   35.5442   -6.7544    0.0000 H   0  0  0  0  0  0  0  0  0  0  0  0
  1  2  1  0
  2  3  1  0
  3  4  2  0
  4  5  1  0
  5  6  2  0
  6  7  1  0
  7  8  2  0
  7  9  1  0
  9 10  1  0
 10 11  1  0
 11 12  2  0
  9 13  1  0
 13 14  1  0
 14 15  2  0
 15 16  1  0
 16 17  2  0
 17 18  1  0
 16 19  1  0
 14 20  1  0
 20 21  1  0
 21 22  2  0
 22 23  1  0
 23 24  2  0
 24 25  1  0
 25 26  2  0
 25 27  1  0
  1 28  2  0
  1 29  1  0
 29 30  1  0
 30 31  1  0
 31 32  1  0
 32 33  2  0
 32 34  1  0
 34 35  1  0
 35 36  1  0
 36 37  1  0
 36 38  1  0
 35 39  1  0
 39 40  2  0
 39 41  1  0
 41 42  1  0
 42 43  1  0
 43 44  1  0
 44 45  1  0
 45 46  1  0
 46 47  1  0
 47 48  2  3
 47 49  1  0
 42 50  1  0
 50 51  2  0
 50 52  1  0
 52 53  1  0
 53 54  1  0
 54 55  1  0
 55 56  1  0
 56 57  1  0
 56 58  2  0
 53 59  1  0
 59 60  2  0
 59 61  1  0
 62 61  1  6
 62 63  1  0
 63 64  1  0
 64 65  1  0
 65 66  1  0
 62 67  1  0
 62 68  1  0
 68 69  2  0
 68 70  1  0
 70 71  1  0
 71 72  1  0
 72 73  1  0
 73 74  1  0
 74 75  1  0
 75 76  1  0
 76 77  2  3
 76 78  1  0
 71 79  1  0
 79 80  2  0
 79 81  1  0
 81 82  1  0
 82 83  1  0
 83 84  1  0
 84 85  1  0
 85 86  1  0
 86 87  1  0
 87 88  2  3
 87 89  1  0
 82 90  1  0
 90 91  2  0
 90 92  1  0
 92 93  1  0
 93 94  1  0
 94 95  1  0
 95 96  1  0
 96 97  1  0
 96 98  2  0
 93 99  1  0
 99100  2  0
 99101  1  0
101102  1  0
102103  1  0
103104  1  0
104105  1  0
105106  1  0
102107  1  0
102108  1  6
108109  2  0
108110  1  0
110111  1  0
111112  1  0
112113  1  0
113114  1  0
114115  1  0
115116  1  0
116117  2  3
116118  1  0
111119  1  0
119120  2  0
119121  1  0
121122  1  0
122123  1  0
123124  1  0
124125  1  0
125126  1  0
126127  1  0
127128  2  3
127129  1  0
122130  1  0
130131  2  0
130132  1  0
132133  1  0
133134  1  0
134135  1  0
135136  1  0
136137  1  0
137138  1  0
138139  2  3
138140  1  0
133141  1  0
141142  2  0
141143  1  0
143144  1  0
144145  1  0
145146  1  0
146147  2  0
147148  1  0
148149  1  0
149150  2  0
150151  1  0
151152  2  0
152153  1  0
153154  2  0
144155  1  0
155156  2  0
155157  1  0
157158  1  0
158159  1  0
159160  1  0
160161  1  0
161162  1  0
162163  1  0
163164  2  3
163165  1  0
158166  1  0
166167  2  0
166168  1  0
168169  1  0
169170  1  0
170171  1  0
171172  1  0
172173  2  0
172174  1  0
169175  1  0
175176  2  0
175177  1  0
177178  1  0
178179  1  0
179180  1  0
180181  1  0
181182  1  0
182183  1  0
183184  2  3
183185  1  0
178186  1  0
186187  2  0
186188  1  0
188189  1  0
189190  1  0
190191  1  0
191192  1  0
192193  1  0
192194  2  0
189195  1  0
195196  2  0
195197  1  0
197198  1  0
198199  1  0
199200  1  0
200201  1  0
201202  1  0
202203  1  0
203204  2  3
203205  1  0
198206  1  0
206207  2  0
206208  1  0
  8  3  1  0
154146  1  0
 11  6  1  0
154149  1  0
 18 13  2  0
 66106  2  0
 22  9  1  0
 26 21  1  0
  2209  1  0
  4210  1  0
  5211  1  0
  8212  1  0
 15213  1  0
 17214  1  0
 18215  1  0
 19216  1  0
 23217  1  0
 24218  1  0
 26219  1  0
 27220  1  0
 29221  1  0
 30222  1  0
 30223  1  0
 31224  1  0
 31225  1  0
 34226  1  0
 35227  1  1
 36228  1  1
 37229  1  0
 38230  1  0
 38231  1  0
 38232  1  0
 41233  1  0
 42234  1  6
 43235  1  0
 43236  1  0
 44237  1  0
 44238  1  0
 45239  1  0
 45240  1  0
 46241  1  0
 48242  1  0
 48243  1  0
 49244  1  0
 49245  1  0
 52246  1  0
 53247  1  1
 54248  1  0
 54249  1  0
 55250  1  0
 55251  1  0
 57252  1  0
 57253  1  0
 61254  1  0
 63255  1  0
 63256  1  0
 64257  1  0
 64258  1  0
 65259  1  0
 65260  1  0
 66261  1  0
 67262  1  0
 67263  1  0
 67264  1  0
 70265  1  0
 71266  1  1
 72267  1  0
 72268  1  0
 73269  1  0
 73270  1  0
 74271  1  0
 74272  1  0
 75273  1  0
 77274  1  0
 77275  1  0
 78276  1  0
 78277  1  0
 81278  1  0
 82279  1  1
 83280  1  0
 83281  1  0
 84282  1  0
 84283  1  0
 85284  1  0
 85285  1  0
 86286  1  0
 88287  1  0
 88288  1  0
 89289  1  0
 89290  1  0
 92291  1  0
 93292  1  1
 94293  1  0
 94294  1  0
 95295  1  0
 95296  1  0
 97297  1  0
 97298  1  0
101299  1  0
103300  1  0
103301  1  0
104302  1  0
104303  1  0
105304  1  0
105305  1  0
106306  1  0
107307  1  0
107308  1  0
107309  1  0
110310  1  0
111311  1  6
112312  1  0
112313  1  0
113314  1  0
113315  1  0
114316  1  0
114317  1  0
115318  1  0
117319  1  0
117320  1  0
118321  1  0
118322  1  0
121323  1  0
122324  1  1
123325  1  0
123326  1  0
124327  1  0
124328  1  0
125329  1  0
125330  1  0
126331  1  0
128332  1  0
128333  1  0
129334  1  0
129335  1  0
132336  1  0
133337  1  6
134338  1  0
134339  1  0
135340  1  0
135341  1  0
136342  1  0
136343  1  0
137344  1  0
139345  1  0
139346  1  0
140347  1  0
140348  1  0
143349  1  0
144350  1  1
145351  1  0
145352  1  0
147353  1  0
148354  1  0
150355  1  0
151356  1  0
152357  1  0
153358  1  0
157359  1  0
158360  1  6
159361  1  0
159362  1  0
160363  1  0
160364  1  0
161365  1  0
161366  1  0
162367  1  0
164368  1  0
164369  1  0
165370  1  0
165371  1  0
168372  1  0
169373  1  1
170374  1  0
170375  1  0
171376  1  0
171377  1  0
177378  1  0
178379  1  6
179380  1  0
179381  1  0
180382  1  0
180383  1  0
181384  1  0
181385  1  0
182386  1  0
184387  1  0
184388  1  0
185389  1  0
185390  1  0
188391  1  0
189392  1  1
190393  1  0
190394  1  0
191395  1  0
191396  1  0
193397  1  0
193398  1  0
197399  1  0
198400  1  6
199401  1  0
199402  1  0
200403  1  0
200404  1  0
201405  1  0
201406  1  0
202407  1  0
204408  1  0
204409  1  0
205410  1  0
205411  1  0
M  CHG  8  48   1  77   1  88   1 117   1 128   1 139   1 164   1 174  -1
M  CHG  3 184   1 204   1 208  -1
M  END
