
     RDKit          2D

264267  0  0  0  0  0  0  0  0999 V2000
  -17.9349   -6.8635    0.0000 N   0  0  0  0  0  0  0  0  0  0  0  0
  -16.4383   -6.7636    0.0000 C   0  0  0  0  0  0  0  0  0  0  0  0
  -15.7764   -5.4175    0.0000 C   0  0  0  0  0  0  0  0  0  0  0  0
  -14.2797   -5.3177    0.0000 C   0  0  0  0  0  0  0  0  0  0  0  0
  -13.6031   -6.6564    0.0000 O   0  0  0  0  0  0  0  0  0  0  0  0
  -13.6179   -3.9716    0.0000 N   0  0  0  0  0  0  0  0  0  0  0  0
  -12.1212   -3.8717    0.0000 C   0  0  0  0  0  0  0  0  0  0  0  0
  -11.0560   -4.9278    0.0000 C   0  0  0  0  0  0  0  0  0  0  0  0
   -9.7269   -5.6230    0.0000 C   0  0  0  0  0  0  0  0  0  0  0  0
   -8.2518   -5.8956    0.0000 C   0  0  0  0  0  0  0  0  0  0  0  0
   -6.7620   -5.7212    0.0000 C   0  0  0  0  0  0  0  0  0  0  0  0
  -12.8132   -5.2026    0.0000 C   0  0  0  0  0  0  0  0  0  0  0  0
  -12.8278   -2.5486    0.0000 C   0  0  0  0  0  0  0  0  0  0  0  0
  -13.6925   -2.7407    0.0000 O   0  0  0  0  0  0  0  0  0  0  0  0
  -13.1130   -1.0759    0.0000 N   0  0  0  0  0  0  0  0  0  0  0  0
  -12.9515    0.4153    0.0000 C   0  0  0  0  0  0  0  0  0  0  0  0
  -14.3772   -0.0507    0.0000 C   0  0  0  0  0  0  0  0  0  0  0  0
  -15.4937    0.9509    0.0000 C   0  0  0  0  0  0  0  0  0  0  0  0
  -16.9195    0.4849    0.0000 C   0  0  0  0  0  0  0  0  0  0  0  0
  -18.0360    1.4865    0.0000 C   0  0  0  0  0  0  0  0  0  0  0  0
  -19.4617    1.0205    0.0000 N   0  0  0  0  0  0  0  0  0  0  0  0
  -12.3575    1.7927    0.0000 C   0  0  0  0  0  0  0  0  0  0  0  0
  -13.6310    2.5853    0.0000 O   0  0  0  0  0  0  0  0  0  0  0  0
  -11.3840    2.9339    0.0000 N   0  0  0  0  0  0  0  0  0  0  0  0
  -10.1173    3.7374    0.0000 C   0  0  0  0  0  0  0  0  0  0  0  0
  -11.3707    4.5615    0.0000 C   0  0  0  0  0  0  0  0  0  0  0  0
  -11.1018    6.0372    0.0000 C   0  0  0  0  0  0  0  0  0  0  0  0
  -12.8303    4.9072    0.0000 C   0  0  0  0  0  0  0  0  0  0  0  0
  -13.2607    6.3441    0.0000 C   0  0  0  0  0  0  0  0  0  0  0  0
   -8.6701    4.1318    0.0000 C   0  0  0  0  0  0  0  0  0  0  0  0
   -8.8445    5.6217    0.0000 O   0  0  0  0  0  0  0  0  0  0  0  0
   -7.1709    4.0822    0.0000 N   0  0  0  0  0  0  0  0  0  0  0  0
   -5.7530    3.5928    0.0000 C   0  0  0  0  0  0  0  0  0  0  0  0
   -5.8901    5.0866    0.0000 C   0  0  0  0  0  0  0  0  0  0  0  0
   -4.6651    5.9522    0.0000 C   0  0  0  0  0  0  0  0  0  0  0  0
   -3.2448    5.4699    0.0000 C   0  0  0  0  0  0  0  0  0  0  0  0
   -2.3472    6.6717    0.0000 N   0  0  0  0  0  0  0  0  0  0  0  0
   -3.2128    7.8968    0.0000 C   0  0  0  0  0  0  0  0  0  0  0  0
   -2.8817    9.3598    0.0000 C   0  0  0  0  0  0  0  0  0  0  0  0
   -3.9831   10.3780    0.0000 C   0  0  0  0  0  0  0  0  0  0  0  0
   -5.4156    9.9333    0.0000 C   0  0  0  0  0  0  0  0  0  0  0  0
   -5.7468    8.4703    0.0000 C   0  0  0  0  0  0  0  0  0  0  0  0
   -4.6454    7.4521    0.0000 C   0  0  0  0  0  0  0  0  0  0  0  0
   -4.5423    2.7073    0.0000 C   0  0  0  0  0  0  0  0  0  0  0  0
   -3.9382    4.0803    0.0000 O   0  0  0  0  0  0  0  0  0  0  0  0
   -3.6464    1.5042    0.0000 N   0  0  0  0  0  0  0  0  0  0  0  0
   -3.1449    0.0905    0.0000 C   0  0  0  0  0  0  0  0  0  0  0  0
   -3.0824   -1.4082    0.0000 C   0  0  0  0  0  0  0  0  0  0  0  0
   -3.4644   -2.8587    0.0000 C   0  0  0  0  0  0  0  0  0  0  0  0
   -4.2570   -4.1322    0.0000 C   0  0  0  0  0  0  0  0  0  0  0  0
   -5.3897   -5.1155    0.0000 C   0  0  0  0  0  0  0  0  0  0  0  0
   -2.5888    1.5842    0.0000 C   0  0  0  0  0  0  0  0  0  0  0  0
   -2.4601    2.9451    0.0000 C   0  0  0  0  0  0  0  0  0  0  0  0
   -2.0762    4.2570    0.0000 C   0  0  0  0  0  0  0  0  0  0  0  0
   -1.4509    5.4725    0.0000 C   0  0  0  0  0  0  0  0  0  0  0  0
   -2.0714   -1.0876    0.0000 C   0  0  0  0  0  0  0  0  0  0  0  0
   -4.1131   -1.9071    0.0000 O   0  0  0  0  0  0  0  0  0  0  0  0
   -1.4440   -2.3020    0.0000 N   0  0  0  0  0  0  0  0  0  0  0  0
   -0.5980   -3.3757    0.0000 C   0  0  0  0  0  0  0  0  0  0  0  0
   -1.4796   -5.3115    0.0000 C   0  0  0  0  0  0  0  0  0  0  0  0
   -0.4097   -6.3627    0.0000 C   0  0  0  0  0  0  0  0  0  0  0  0
   -0.7851   -7.8150    0.0000 C   0  0  0  0  0  0  0  0  0  0  0  0
    0.1488   -8.9888    0.0000 N   0  0  0  0  0  0  0  0  0  0  0  0
   -2.2305   -8.2160    0.0000 O   0  0  0  0  0  0  0  0  0  0  0  0
    0.4358   -4.2699    0.0000 C   0  0  0  0  0  0  0  0  0  0  0  0
   -0.1893   -5.5606    0.0000 O   0  0  0  0  0  0  0  0  0  0  0  0
    1.6202   -4.9523    0.0000 N   0  0  0  0  0  0  0  0  0  0  0  0
    2.9124   -5.3983    0.0000 C   0  0  0  0  0  0  0  0  0  0  0  0
    3.2173   -7.5034    0.0000 C   0  0  0  0  0  0  0  0  0  0  0  0
    2.2181   -8.6222    0.0000 C   0  0  0  0  0  0  0  0  0  0  0  0
    2.6874  -10.0468    0.0000 N   0  0  0  0  0  0  0  0  0  0  0  0
    1.0073   -8.5212    0.0000 O   0  0  0  0  0  0  0  0  0  0  0  0
    4.2655   -5.5916    0.0000 C   0  0  0  0  0  0  0  0  0  0  0  0
    4.3460   -7.7866    0.0000 O   0  0  0  0  0  0  0  0  0  0  0  0
    5.6309   -5.5253    0.0000 N   0  0  0  0  0  0  0  0  0  0  0  0
    6.9590   -5.2019    0.0000 C   0  0  0  0  0  0  0  0  0  0  0  0
    8.3536   -6.8080    0.0000 C   0  0  0  0  0  0  0  0  0  0  0  0
    8.1179   -8.2893    0.0000 C   0  0  0  0  0  0  0  0  0  0  0  0
    9.2829   -9.2341    0.0000 C   0  0  0  0  0  0  0  0  0  0  0  0
    9.0473  -10.7155    0.0000 N   0  0  0  0  0  0  0  0  0  0  0  0
   10.2123  -11.6603    0.0000 C   0  0  0  0  0  0  0  0  0  0  0  0
    9.9766  -13.1417    0.0000 N   0  0  0  0  0  0  0  0  0  0  0  0
   11.6131  -11.1237    0.0000 N   0  0  0  0  0  0  0  0  0  0  0  0
    8.2019   -4.6329    0.0000 C   0  0  0  0  0  0  0  0  0  0  0  0
    9.4562   -6.4360    0.0000 O   0  0  0  0  0  0  0  0  0  0  0  0
    9.3146   -3.8390    0.0000 N   0  0  0  0  0  0  0  0  0  0  0  0
   10.2570   -2.8489    0.0000 C   0  0  0  0  0  0  0  0  0  0  0  0
   12.2985   -3.4461    0.0000 C   0  0  0  0  0  0  0  0  0  0  0  0
   12.9012   -4.8197    0.0000 C   0  0  0  0  0  0  0  0  0  0  0  0
   14.3921   -4.9846    0.0000 C   0  0  0  0  0  0  0  0  0  0  0  0
   14.9947   -6.3583    0.0000 N   0  0  0  0  0  0  0  0  0  0  0  0
   16.4856   -6.5232    0.0000 C   0  0  0  0  0  0  0  0  0  0  0  0
   17.0882   -7.8968    0.0000 N   0  0  0  0  0  0  0  0  0  0  0  0
   17.3739   -5.3145    0.0000 N   0  0  0  0  0  0  0  0  0  0  0  0
   10.9950   -1.6983    0.0000 C   0  0  0  0  0  0  0  0  0  0  0  0
   13.0250   -2.5370    0.0000 O   0  0  0  0  0  0  0  0  0  0  0  0
   11.5019   -0.4289    0.0000 N   0  0  0  0  0  0  0  0  0  0  0  0
   11.7594    0.9136    0.0000 C   0  0  0  0  0  0  0  0  0  0  0  0
   13.7997    1.5150    0.0000 C   0  0  0  0  0  0  0  0  0  0  0  0
   11.7582    2.2805    0.0000 C   0  0  0  0  0  0  0  0  0  0  0  0
   13.9193    2.6725    0.0000 O   0  0  0  0  0  0  0  0  0  0  0  0
   11.4983    3.6225    0.0000 N   0  0  0  0  0  0  0  0  0  0  0  0
   10.9891    4.8910    0.0000 C   0  0  0  0  0  0  0  0  0  0  0  0
   12.3804    6.5000    0.0000 C   0  0  0  0  0  0  0  0  0  0  0  0
   13.8802    6.4775    0.0000 C   0  0  0  0  0  0  0  0  0  0  0  0
   14.6496    7.7652    0.0000 C   0  0  0  0  0  0  0  0  0  0  0  0
   16.1494    7.7427    0.0000 C   0  0  0  0  0  0  0  0  0  0  0  0
   16.9188    9.0304    0.0000 N   0  0  0  0  0  0  0  0  0  0  0  0
   10.2491    6.0403    0.0000 C   0  0  0  0  0  0  0  0  0  0  0  0
   11.8552    7.5385    0.0000 O   0  0  0  0  0  0  0  0  0  0  0  0
    9.3049    7.0287    0.0000 N   0  0  0  0  0  0  0  0  0  0  0  0
    8.1908    7.8206    0.0000 C   0  0  0  0  0  0  0  0  0  0  0  0
    6.9469    8.3874    0.0000 C   0  0  0  0  0  0  0  0  0  0  0  0
    5.6182    8.7085    0.0000 C   0  0  0  0  0  0  0  0  0  0  0  0
    4.2527    8.7723    0.0000 C   0  0  0  0  0  0  0  0  0  0  0  0
    2.8999    8.5765    0.0000 C   0  0  0  0  0  0  0  0  0  0  0  0
    1.6086    8.1283    0.0000 C   0  0  0  0  0  0  0  0  0  0  0  0
    0.4254    7.4438    0.0000 C   0  0  0  0  0  0  0  0  0  0  0  0
   -0.6069    6.5477    0.0000 C   0  0  0  0  0  0  0  0  0  0  0  0
    9.8618    9.1368    0.0000 C   0  0  0  0  0  0  0  0  0  0  0  0
    8.4913    9.9264    0.0000 C   0  0  0  0  0  0  0  0  0  0  0  0
    9.6591   10.8677    0.0000 O   0  0  0  0  0  0  0  0  0  0  0  0
    7.3789   10.9327    0.0000 O   0  0  0  0  0  0  0  0  0  0  0  0
  -18.5968   -8.2096    0.0000 H   0  0  0  0  0  0  0  0  0  0  0  0
  -18.7698   -5.6173    0.0000 H   0  0  0  0  0  0  0  0  0  0  0  0
  -16.5998   -8.2549    0.0000 H   0  0  0  0  0  0  0  0  0  0  0  0
  -14.9977   -7.1817    0.0000 H   0  0  0  0  0  0  0  0  0  0  0  0
  -17.2170   -4.9995    0.0000 H   0  0  0  0  0  0  0  0  0  0  0  0
  -15.6149   -3.9263    0.0000 H   0  0  0  0  0  0  0  0  0  0  0  0
  -14.1390   -3.3683    0.0000 H   0  0  0  0  0  0  0  0  0  0  0  0
  -11.1430   -6.4253    0.0000 H   0  0  0  0  0  0  0  0  0  0  0  0
  -12.3809   -5.6311    0.0000 H   0  0  0  0  0  0  0  0  0  0  0  0
   -9.5488   -7.1124    0.0000 H   0  0  0  0  0  0  0  0  0  0  0  0
  -10.7856   -6.6856    0.0000 H   0  0  0  0  0  0  0  0  0  0  0  0
   -7.4802   -7.1819    0.0000 H   0  0  0  0  0  0  0  0  0  0  0  0
   -8.9503   -7.2230    0.0000 H   0  0  0  0  0  0  0  0  0  0  0  0
   -6.3675   -7.1684    0.0000 H   0  0  0  0  0  0  0  0  0  0  0  0
  -14.0080   -5.8333    0.0000 H   0  0  0  0  0  0  0  0  0  0  0  0
  -12.4673   -6.7463    0.0000 H   0  0  0  0  0  0  0  0  0  0  0  0
  -11.4042   -6.1152    0.0000 H   0  0  0  0  0  0  0  0  0  0  0  0
  -14.6117   -1.1385    0.0000 H   0  0  0  0  0  0  0  0  0  0  0  0
  -13.8201    1.6382    0.0000 H   0  0  0  0  0  0  0  0  0  0  0  0
  -15.4359   -1.1133    0.0000 H   0  0  0  0  0  0  0  0  0  0  0  0
  -14.0118   -1.5056    0.0000 H   0  0  0  0  0  0  0  0  0  0  0  0
  -16.0338    2.3504    0.0000 H   0  0  0  0  0  0  0  0  0  0  0  0
  -14.4350    2.0135    0.0000 H   0  0  0  0  0  0  0  0  0  0  0  0
  -17.9782   -0.5777    0.0000 H   0  0  0  0  0  0  0  0  0  0  0  0
  -16.3794   -0.9146    0.0000 H   0  0  0  0  0  0  0  0  0  0  0  0
  -18.7426    2.8097    0.0000 H   0  0  0  0  0  0  0  0  0  0  0  0
  -16.9773    2.5491    0.0000 H   0  0  0  0  0  0  0  0  0  0  0  0
  -20.5783    2.0221    0.0000 H   0  0  0  0  0  0  0  0  0  0  0  0
  -20.6421    0.0948    0.0000 H   0  0  0  0  0  0  0  0  0  0  0  0
  -18.9217   -0.3790    0.0000 H   0  0  0  0  0  0  0  0  0  0  0  0
  -12.4980    3.9383    0.0000 H   0  0  0  0  0  0  0  0  0  0  0  0
   -9.7028    5.1790    0.0000 H   0  0  0  0  0  0  0  0  0  0  0  0
  -12.2802    3.3687    0.0000 H   0  0  0  0  0  0  0  0  0  0  0  0
  -12.4232    7.0517    0.0000 H   0  0  0  0  0  0  0  0  0  0  0  0
  -10.6897    7.4364    0.0000 H   0  0  0  0  0  0  0  0  0  0  0  0
   -9.7928    5.8937    0.0000 H   0  0  0  0  0  0  0  0  0  0  0  0
  -14.3201    4.7329    0.0000 H   0  0  0  0  0  0  0  0  0  0  0  0
  -13.0992    3.4315    0.0000 H   0  0  0  0  0  0  0  0  0  0  0  0
  -14.7203    6.6899    0.0000 H   0  0  0  0  0  0  0  0  0  0  0  0
  -13.1737    7.8416    0.0000 H   0  0  0  0  0  0  0  0  0  0  0  0
  -11.8573    6.8738    0.0000 H   0  0  0  0  0  0  0  0  0  0  0  0
   -6.8984    5.5572    0.0000 H   0  0  0  0  0  0  0  0  0  0  0  0
   -4.6656    4.6260    0.0000 H   0  0  0  0  0  0  0  0  0  0  0  0
   -6.5299    6.4433    0.0000 H   0  0  0  0  0  0  0  0  0  0  0  0
   -7.3898    5.0540    0.0000 H   0  0  0  0  0  0  0  0  0  0  0  0
   -2.3161    4.2920    0.0000 H   0  0  0  0  0  0  0  0  0  0  0  0
   -0.8871    7.0155    0.0000 H   0  0  0  0  0  0  0  0  0  0  0  0
   -1.4491    9.8045    0.0000 H   0  0  0  0  0  0  0  0  0  0  0  0
   -3.6519   11.8410    0.0000 H   0  0  0  0  0  0  0  0  0  0  0  0
   -6.5170   10.9516    0.0000 H   0  0  0  0  0  0  0  0  0  0  0  0
   -7.1794    8.0256    0.0000 H   0  0  0  0  0  0  0  0  0  0  0  0
   -2.3232    2.2108    0.0000 H   0  0  0  0  0  0  0  0  0  0  0  0
   -1.7420   -0.7348    0.0000 H   0  0  0  0  0  0  0  0  0  0  0  0
   -2.0412   -2.4879    0.0000 H   0  0  0  0  0  0  0  0  0  0  0  0
   -1.9944   -3.1571    0.0000 H   0  0  0  0  0  0  0  0  0  0  0  0
   -2.9559   -4.2699    0.0000 H   0  0  0  0  0  0  0  0  0  0  0  0
   -2.9402   -4.8506    0.0000 H   0  0  0  0  0  0  0  0  0  0  0  0
   -3.8266   -5.5691    0.0000 H   0  0  0  0  0  0  0  0  0  0  0  0
   -4.5862   -6.3821    0.0000 H   0  0  0  0  0  0  0  0  0  0  0  0
   -4.5627    0.7916    0.0000 H   0  0  0  0  0  0  0  0  0  0  0  0
   -4.4583    2.5229    0.0000 H   0  0  0  0  0  0  0  0  0  0  0  0
   -4.6476    3.0781    0.0000 H   0  0  0  0  0  0  0  0  0  0  0  0
   -4.1182    4.2206    0.0000 H   0  0  0  0  0  0  0  0  0  0  0  0
   -4.1989    4.8016    0.0000 H   0  0  0  0  0  0  0  0  0  0  0  0
   -3.2981    5.9033    0.0000 H   0  0  0  0  0  0  0  0  0  0  0  0
   -3.3027    6.6603    0.0000 H   0  0  0  0  0  0  0  0  0  0  0  0
   -2.9188   -3.8911    0.0000 H   0  0  0  0  0  0  0  0  0  0  0  0
   -2.5236   -4.3444    0.0000 H   0  0  0  0  0  0  0  0  0  0  0  0
   -2.3291   -6.5477    0.0000 H   0  0  0  0  0  0  0  0  0  0  0  0
   -2.9769   -5.2202    0.0000 H   0  0  0  0  0  0  0  0  0  0  0  0
    0.7643   -7.2965    0.0000 H   0  0  0  0  0  0  0  0  0  0  0  0
    0.7137   -5.3688    0.0000 H   0  0  0  0  0  0  0  0  0  0  0  0
   -0.0905  -10.3185    0.0000 H   0  0  0  0  0  0  0  0  0  0  0  0
    1.8100   -8.8635    0.0000 H   0  0  0  0  0  0  0  0  0  0  0  0
    0.8791   -7.0200    0.0000 H   0  0  0  0  0  0  0  0  0  0  0  0
    1.8162   -7.2542    0.0000 H   0  0  0  0  0  0  0  0  0  0  0  0
    3.9950   -8.7860    0.0000 H   0  0  0  0  0  0  0  0  0  0  0  0
    4.6712   -7.1346    0.0000 H   0  0  0  0  0  0  0  0  0  0  0  0
    1.6883  -11.1656    0.0000 H   0  0  0  0  0  0  0  0  0  0  0  0
    4.1559  -10.3527    0.0000 H   0  0  0  0  0  0  0  0  0  0  0  0
    5.7633   -7.7178    0.0000 H   0  0  0  0  0  0  0  0  0  0  0  0
    6.6834   -7.2756    0.0000 H   0  0  0  0  0  0  0  0  0  0  0  0
    9.7715   -7.2973    0.0000 H   0  0  0  0  0  0  0  0  0  0  0  0
    9.3774   -5.7117    0.0000 H   0  0  0  0  0  0  0  0  0  0  0  0
    7.3898   -9.6008    0.0000 H   0  0  0  0  0  0  0  0  0  0  0  0
    6.6237   -8.1576    0.0000 H   0  0  0  0  0  0  0  0  0  0  0  0
   10.7009   -9.7235    0.0000 H   0  0  0  0  0  0  0  0  0  0  0  0
   10.1655   -8.0212    0.0000 H   0  0  0  0  0  0  0  0  0  0  0  0
    7.6465  -11.2521    0.0000 H   0  0  0  0  0  0  0  0  0  0  0  0
   11.1417  -14.0864    0.0000 H   0  0  0  0  0  0  0  0  0  0  0  0
    8.5759  -13.6782    0.0000 H   0  0  0  0  0  0  0  0  0  0  0  0
   12.7781  -12.0685    0.0000 H   0  0  0  0  0  0  0  0  0  0  0  0
   11.8487   -9.6423    0.0000 H   0  0  0  0  0  0  0  0  0  0  0  0
   10.6114   -5.6118    0.0000 H   0  0  0  0  0  0  0  0  0  0  0  0
   11.1463   -4.7424    0.0000 H   0  0  0  0  0  0  0  0  0  0  0  0
   13.7559   -3.0911    0.0000 H   0  0  0  0  0  0  0  0  0  0  0  0
   12.5671   -1.9703    0.0000 H   0  0  0  0  0  0  0  0  0  0  0  0
   12.9976   -6.3166    0.0000 H   0  0  0  0  0  0  0  0  0  0  0  0
   11.5729   -5.5167    0.0000 H   0  0  0  0  0  0  0  0  0  0  0  0
   15.8495   -4.6297    0.0000 H   0  0  0  0  0  0  0  0  0  0  0  0
   14.4788   -3.4871    0.0000 H   0  0  0  0  0  0  0  0  0  0  0  0
   14.1064   -7.5669    0.0000 H   0  0  0  0  0  0  0  0  0  0  0  0
   18.5791   -8.0617    0.0000 H   0  0  0  0  0  0  0  0  0  0  0  0
   16.1999   -9.1055    0.0000 H   0  0  0  0  0  0  0  0  0  0  0  0
   18.8648   -5.4794    0.0000 H   0  0  0  0  0  0  0  0  0  0  0  0
   16.7713   -3.9409    0.0000 H   0  0  0  0  0  0  0  0  0  0  0  0
   13.6133   -1.0468    0.0000 H   0  0  0  0  0  0  0  0  0  0  0  0
   13.6507   -0.0597    0.0000 H   0  0  0  0  0  0  0  0  0  0  0  0
   15.0493    0.6852    0.0000 H   0  0  0  0  0  0  0  0  0  0  0  0
   14.9586    2.4673    0.0000 H   0  0  0  0  0  0  0  0  0  0  0  0
   13.2278    2.9017    0.0000 H   0  0  0  0  0  0  0  0  0  0  0  0
   13.6496    4.0656    0.0000 H   0  0  0  0  0  0  0  0  0  0  0  0
   13.0809    4.9134    0.0000 H   0  0  0  0  0  0  0  0  0  0  0  0
   12.6630    7.9732    0.0000 H   0  0  0  0  0  0  0  0  0  0  0  0
   11.1496    7.3574    0.0000 H   0  0  0  0  0  0  0  0  0  0  0  0
   15.2064    5.7766    0.0000 H   0  0  0  0  0  0  0  0  0  0  0  0
   13.9625    4.9798    0.0000 H   0  0  0  0  0  0  0  0  0  0  0  0
   14.7505    9.2618    0.0000 H   0  0  0  0  0  0  0  0  0  0  0  0
   13.3234    8.4662    0.0000 H   0  0  0  0  0  0  0  0  0  0  0  0
   17.5511    7.2087    0.0000 H   0  0  0  0  0  0  0  0  0  0  0  0
   16.0485    6.2461    0.0000 H   0  0  0  0  0  0  0  0  0  0  0  0
   18.4186    9.0079    0.0000 H   0  0  0  0  0  0  0  0  0  0  0  0
   17.2014   10.5036    0.0000 H   0  0  0  0  0  0  0  0  0  0  0  0
   15.5926    9.7314    0.0000 H   0  0  0  0  0  0  0  0  0  0  0  0
   10.8751    8.5646    0.0000 H   0  0  0  0  0  0  0  0  0  0  0  0
    6.8434   10.5119    0.0000 H   0  0  0  0  0  0  0  0  0  0  0  0
    8.0749   10.2493    0.0000 H   0  0  0  0  0  0  0  0  0  0  0  0
    5.2865   10.8383    0.0000 H   0  0  0  0  0  0  0  0  0  0  0  0
    6.3735   10.7502    0.0000 H   0  0  0  0  0  0  0  0  0  0  0  0
    3.5240   10.8008    0.0000 H   0  0  0  0  0  0  0  0  0  0  0  0
    4.7817   10.8619    0.0000 H   0  0  0  0  0  0  0  0  0  0  0  0
    1.8004   10.4305    0.0000 H   0  0  0  0  0  0  0  0  0  0  0  0
    3.0238   10.7285    0.0000 H   0  0  0  0  0  0  0  0  0  0  0  0
    0.1781    9.7407    0.0000 H   0  0  0  0  0  0  0  0  0  0  0  0
    1.3230   10.2648    0.0000 H   0  0  0  0  0  0  0  0  0  0  0  0
   -1.3652    8.5919    0.0000 H   0  0  0  0  0  0  0  0  0  0  0  0
   -0.2594    9.4876    0.0000 H   0  0  0  0  0  0  0  0  0  0  0  0
   -2.2004    8.0645    0.0000 H   0  0  0  0  0  0  0  0  0  0  0  0
   10.0904   10.6192    0.0000 H   0  0  0  0  0  0  0  0  0  0  0  0
   11.3090    9.5309    0.0000 H   0  0  0  0  0  0  0  0  0  0  0  0
   10.6619    7.8680    0.0000 H   0  0  0  0  0  0  0  0  0  0  0  0
  1  2  1  0
  2  3  1  0
  3  4  1  0
  4  5  2  0
  4  6  1  0
  7  6  1  6
  7  8  1  0
  8  9  1  0
  9 10  1  0
 10 11  1  0
  7 12  1  0
  7 13  1  0
 13 14  2  0
 13 15  1  0
 15 16  1  0
 16 17  1  0
 17 18  1  0
 18 19  1  0
 19 20  1  0
 20 21  1  0
 16 22  1  0
 22 23  2  0
 22 24  1  0
 24 25  1  0
 25 26  1  0
 26 27  1  0
 26 28  1  0
 28 29  1  0
 25 30  1  0
 30 31  2  0
 30 32  1  0
 32 33  1  0
 33 34  1  0
 34 35  1  0
 35 36  2  0
 36 37  1  0
 37 38  1  0
 38 39  2  0
 39 40  1  0
 40 41  2  0
 41 42  1  0
 42 43  2  0
 33 44  1  0
 44 45  2  0
 44 46  1  0
 46 47  1  0
 47 48  1  0
 48 49  1  0
 49 50  1  0
 50 51  1  0
 47 52  1  0
 52 53  1  0
 53 54  1  0
 54 55  1  0
 47 56  1  0
 56 57  2  0
 56 58  1  0
 58 59  1  0
 59 60  1  0
 60 61  1  0
 61 62  1  0
 62 63  1  0
 62 64  2  0
 59 65  1  0
 65 66  2  0
 65 67  1  0
 67 68  1  0
 68 69  1  0
 69 70  1  0
 70 71  1  0
 70 72  2  0
 68 73  1  0
 73 74  2  0
 73 75  1  0
 75 76  1  0
 76 77  1  0
 77 78  1  0
 78 79  1  0
 79 80  1  0
 80 81  1  0
 81 82  2  3
 81 83  1  0
 76 84  1  0
 84 85  2  0
 84 86  1  0
 86 87  1  0
 87 88  1  0
 88 89  1  0
 89 90  1  0
 90 91  1  0
 91 92  1  0
 92 93  2  3
 92 94  1  0
 87 95  1  0
 95 96  2  0
 95 97  1  0
 97 98  1  0
 98 99  1  0
 98100  1  0
100101  2  0
100102  1  0
102103  1  0
103104  1  0
104105  1  0
105106  1  0
106107  1  0
107108  1  0
103109  1  0
109110  2  0
109111  1  0
111112  1  0
112113  1  0
113114  1  0
114115  1  0
115116  1  0
116117  1  0
117118  1  0
118119  1  0
112120  1  0
112121  1  1
121122  2  0
121123  1  0
 43 35  1  0
 43 38  1  0
 11 51  2  0
 55119  2  0
  1124  1  0
  1125  1  0
  2126  1  0
  2127  1  0
  3128  1  0
  3129  1  0
  6130  1  0
  8131  1  0
  8132  1  0
  9133  1  0
  9134  1  0
 10135  1  0
 10136  1  0
 11137  1  0
 12138  1  0
 12139  1  0
 12140  1  0
 15141  1  0
 16142  1  1
 17143  1  0
 17144  1  0
 18145  1  0
 18146  1  0
 19147  1  0
 19148  1  0
 20149  1  0
 20150  1  0
 21151  1  0
 21152  1  0
 21153  1  0
 24154  1  0
 25155  1  1
 26156  1  1
 27157  1  0
 27158  1  0
 27159  1  0
 28160  1  0
 28161  1  0
 29162  1  0
 29163  1  0
 29164  1  0
 32165  1  0
 33166  1  1
 34167  1  0
 34168  1  0
 36169  1  0
 37170  1  0
 39171  1  0
 40172  1  0
 41173  1  0
 42174  1  0
 46175  1  0
 48176  1  0
 48177  1  0
 49178  1  0
 49179  1  0
 50180  1  0
 50181  1  0
 51182  1  0
 52183  1  0
 52184  1  0
 53185  1  0
 53186  1  0
 54187  1  0
 54188  1  0
 55189  1  0
 58190  1  0
 59191  1  6
 60192  1  0
 60193  1  0
 61194  1  0
 61195  1  0
 63196  1  0
 63197  1  0
 67198  1  0
 68199  1  6
 69200  1  0
 69201  1  0
 71202  1  0
 71203  1  0
 75204  1  0
 76205  1  6
 77206  1  0
 77207  1  0
 78208  1  0
 78209  1  0
 79210  1  0
 79211  1  0
 80212  1  0
 82213  1  0
 82214  1  0
 83215  1  0
 83216  1  0
 86217  1  0
 87218  1  6
 88219  1  0
 88220  1  0
 89221  1  0
 89222  1  0
 90223  1  0
 90224  1  0
 91225  1  0
 93226  1  0
 93227  1  0
 94228  1  0
 94229  1  0
 97230  1  0
 98231  1  6
 99232  1  0
 99233  1  0
 99234  1  0
102235  1  0
103236  1  6
104237  1  0
104238  1  0
105239  1  0
105240  1  0
106241  1  0
106242  1  0
107243  1  0
107244  1  0
108245  1  0
108246  1  0
108247  1  0
111248  1  0
113249  1  0
113250  1  0
114251  1  0
114252  1  0
115253  1  0
115254  1  0
116255  1  0
116256  1  0
117257  1  0
117258  1  0
118259  1  0
118260  1  0
119261  1  0
120262  1  0
120263  1  0
120264  1  0
M  CHG  5  21   1  82   1  93   1 108   1 123  -1
M  END
