
     RDKit          2D

343351  0  0  0  0  0  0  0  0999 V2000
  -16.2559   -8.3802    0.0000 C   0  0  0  0  0  0  0  0  0  0  0  0
  -15.5410   -9.6989    0.0000 N   0  0  0  0  0  0  0  0  0  0  0  0
  -16.3256  -10.9774    0.0000 C   0  0  0  0  0  0  0  0  0  0  0  0
  -17.8251  -10.9371    0.0000 C   0  0  0  0  0  0  0  0  0  0  0  0
  -18.6096  -12.2156    0.0000 C   0  0  0  0  0  0  0  0  0  0  0  0
  -17.8948  -13.5343    0.0000 C   0  0  0  0  0  0  0  0  0  0  0  0
  -16.3953  -13.5745    0.0000 C   0  0  0  0  0  0  0  0  0  0  0  0
  -15.6107  -12.2961    0.0000 C   0  0  0  0  0  0  0  0  0  0  0  0
  -15.9702  -15.0130    0.0000 C   0  0  0  0  0  0  0  0  0  0  0  0
  -17.2069  -15.8618    0.0000 O   0  0  0  0  0  0  0  0  0  0  0  0
  -18.3964  -14.9479    0.0000 C   0  0  0  0  0  0  0  0  0  0  0  0
  -19.8349  -15.3730    0.0000 O   0  0  0  0  0  0  0  0  0  0  0  0
  -15.6978  -16.4881    0.0000 C   0  0  0  0  0  0  0  0  0  0  0  0
  -14.2841  -16.9897    0.0000 C   0  0  0  0  0  0  0  0  0  0  0  0
  -14.0117  -18.4647    0.0000 C   0  0  0  0  0  0  0  0  0  0  0  0
  -15.1530  -19.4382    0.0000 C   0  0  0  0  0  0  0  0  0  0  0  0
  -16.5666  -18.9366    0.0000 C   0  0  0  0  0  0  0  0  0  0  0  0
  -16.8390  -17.4615    0.0000 C   0  0  0  0  0  0  0  0  0  0  0  0
  -14.8806  -20.9132    0.0000 O   0  0  0  0  0  0  0  0  0  0  0  0
  -13.1429  -16.0163    0.0000 O   0  0  0  0  0  0  0  0  0  0  0  0
  -13.4153  -14.5412    0.0000 C   0  0  0  0  0  0  0  0  0  0  0  0
  -14.8290  -14.0396    0.0000 C   0  0  0  0  0  0  0  0  0  0  0  0
  -14.4417  -12.7986    0.0000 C   0  0  0  0  0  0  0  0  0  0  0  0
  -13.8330  -12.2794    0.0000 C   0  0  0  0  0  0  0  0  0  0  0  0
  -13.0791  -12.5470    0.0000 C   0  0  0  0  0  0  0  0  0  0  0  0
  -12.9338  -13.3337    0.0000 C   0  0  0  0  0  0  0  0  0  0  0  0
  -11.4053  -11.1193    0.0000 O   0  0  0  0  0  0  0  0  0  0  0  0
  -17.7554   -8.3400    0.0000 S   0  0  0  0  0  0  0  0  0  0  0  0
  -15.4714   -7.1018    0.0000 N   0  0  0  0  0  0  0  0  0  0  0  0
  -16.1862   -5.7831    0.0000 C   0  0  0  0  0  0  0  0  0  0  0  0
  -15.4017   -4.5046    0.0000 C   0  0  0  0  0  0  0  0  0  0  0  0
  -16.1166   -3.1859    0.0000 C   0  0  0  0  0  0  0  0  0  0  0  0
  -16.8949   -3.3580    0.0000 O   0  0  0  0  0  0  0  0  0  0  0  0
  -15.3320   -1.9075    0.0000 N   0  0  0  0  0  0  0  0  0  0  0  0
  -16.0469   -0.5888    0.0000 C   0  0  0  0  0  0  0  0  0  0  0  0
  -17.2214   -1.5218    0.0000 C   0  0  0  0  0  0  0  0  0  0  0  0
  -17.0006   -3.0055    0.0000 C   0  0  0  0  0  0  0  0  0  0  0  0
  -18.1752   -3.9385    0.0000 C   0  0  0  0  0  0  0  0  0  0  0  0
  -16.2857   -4.3242    0.0000 C   0  0  0  0  0  0  0  0  0  0  0  0
  -16.2676    0.8949    0.0000 C   0  0  0  0  0  0  0  0  0  0  0  0
  -17.7196    1.2713    0.0000 O   0  0  0  0  0  0  0  0  0  0  0  0
  -15.0931    1.8279    0.0000 N   0  0  0  0  0  0  0  0  0  0  0  0
  -15.3139    3.3116    0.0000 C   0  0  0  0  0  0  0  0  0  0  0  0
  -16.7367    2.8365    0.0000 C   0  0  0  0  0  0  0  0  0  0  0  0
  -17.2136    1.4143    0.0000 O   0  0  0  0  0  0  0  0  0  0  0  0
  -15.0139    4.7812    0.0000 C   0  0  0  0  0  0  0  0  0  0  0  0
  -16.3440    5.4747    0.0000 O   0  0  0  0  0  0  0  0  0  0  0  0
  -13.5911    5.2563    0.0000 N   0  0  0  0  0  0  0  0  0  0  0  0
  -13.2911    6.7260    0.0000 C   0  0  0  0  0  0  0  0  0  0  0  0
  -14.7906    6.7662    0.0000 C   0  0  0  0  0  0  0  0  0  0  0  0
  -15.5751    5.4878    0.0000 C   0  0  0  0  0  0  0  0  0  0  0  0
  -17.0746    5.5280    0.0000 C   0  0  0  0  0  0  0  0  0  0  0  0
  -18.0092    4.3547    0.0000 N   0  0  0  0  0  0  0  0  0  0  0  0
  -17.7895    6.8467    0.0000 O   0  0  0  0  0  0  0  0  0  0  0  0
  -12.5065    8.0044    0.0000 C   0  0  0  0  0  0  0  0  0  0  0  0
  -13.5193    9.1109    0.0000 O   0  0  0  0  0  0  0  0  0  0  0  0
  -11.0071    7.9642    0.0000 N   0  0  0  0  0  0  0  0  0  0  0  0
  -10.2225    9.2427    0.0000 C   0  0  0  0  0  0  0  0  0  0  0  0
  -11.6178    9.7933    0.0000 C   0  0  0  0  0  0  0  0  0  0  0  0
  -12.7923    8.8603    0.0000 C   0  0  0  0  0  0  0  0  0  0  0  0
  -14.1876    9.4109    0.0000 C   0  0  0  0  0  0  0  0  0  0  0  0
  -15.4670    8.6281    0.0000 O   0  0  0  0  0  0  0  0  0  0  0  0
  -14.4083   10.8946    0.0000 O   0  0  0  0  0  0  0  0  0  0  0  0
   -9.0480   10.1757    0.0000 C   0  0  0  0  0  0  0  0  0  0  0  0
   -9.6212   11.5618    0.0000 O   0  0  0  0  0  0  0  0  0  0  0  0
   -7.6527    9.6250    0.0000 N   0  0  0  0  0  0  0  0  0  0  0  0
   -6.4782   10.5580    0.0000 C   0  0  0  0  0  0  0  0  0  0  0  0
   -7.6010   11.5527    0.0000 C   0  0  0  0  0  0  0  0  0  0  0  0
   -8.3159   12.8714    0.0000 O   0  0  0  0  0  0  0  0  0  0  0  0
   -9.0711   11.2546    0.0000 C   0  0  0  0  0  0  0  0  0  0  0  0
   -5.0554   11.0331    0.0000 C   0  0  0  0  0  0  0  0  0  0  0  0
   -5.1200   12.5317    0.0000 O   0  0  0  0  0  0  0  0  0  0  0  0
   -3.9326   10.0384    0.0000 N   0  0  0  0  0  0  0  0  0  0  0  0
   -2.5098   10.5135    0.0000 C   0  0  0  0  0  0  0  0  0  0  0  0
   -3.2247   11.8322    0.0000 C   0  0  0  0  0  0  0  0  0  0  0  0
   -4.7242   11.8724    0.0000 C   0  0  0  0  0  0  0  0  0  0  0  0
   -5.4391   13.1911    0.0000 C   0  0  0  0  0  0  0  0  0  0  0  0
   -6.9385   13.2313    0.0000 C   0  0  0  0  0  0  0  0  0  0  0  0
   -7.7231   11.9529    0.0000 C   0  0  0  0  0  0  0  0  0  0  0  0
   -7.0082   10.6342    0.0000 C   0  0  0  0  0  0  0  0  0  0  0  0
   -5.5087   10.5939    0.0000 C   0  0  0  0  0  0  0  0  0  0  0  0
   -1.0104   10.4732    0.0000 C   0  0  0  0  0  0  0  0  0  0  0  0
   -0.3875   11.8378    0.0000 O   0  0  0  0  0  0  0  0  0  0  0  0
   -0.2955    9.1546    0.0000 N   0  0  0  0  0  0  0  0  0  0  0  0
    1.2040    9.1143    0.0000 C   0  0  0  0  0  0  0  0  0  0  0  0
    2.2163   10.2212    0.0000 C   0  0  0  0  0  0  0  0  0  0  0  0
    3.4995   10.9980    0.0000 C   0  0  0  0  0  0  0  0  0  0  0  0
    4.9496   11.3819    0.0000 C   0  0  0  0  0  0  0  0  0  0  0  0
    6.4490   11.3416    0.0000 C   0  0  0  0  0  0  0  0  0  0  0  0
    7.8764   10.8806    0.0000 C   0  0  0  0  0  0  0  0  0  0  0  0
    9.1161   10.0361    0.0000 C   0  0  0  0  0  0  0  0  0  0  0  0
   10.0676    8.8765    0.0000 C   0  0  0  0  0  0  0  0  0  0  0  0
    0.4538   10.4132    0.0000 C   0  0  0  0  0  0  0  0  0  0  0  0
    0.5445    7.7671    0.0000 C   0  0  0  0  0  0  0  0  0  0  0  0
   -0.9285    8.0507    0.0000 O   0  0  0  0  0  0  0  0  0  0  0  0
    0.2913    6.2886    0.0000 N   0  0  0  0  0  0  0  0  0  0  0  0
    0.4648    4.7987    0.0000 C   0  0  0  0  0  0  0  0  0  0  0  0
   -0.9625    5.2597    0.0000 C   0  0  0  0  0  0  0  0  0  0  0  0
   -2.0755    4.2541    0.0000 C   0  0  0  0  0  0  0  0  0  0  0  0
   -3.5029    4.7152    0.0000 O   0  0  0  0  0  0  0  0  0  0  0  0
   -1.7611    2.7874    0.0000 O   0  0  0  0  0  0  0  0  0  0  0  0
    1.0512    3.4180    0.0000 C   0  0  0  0  0  0  0  0  0  0  0  0
   -0.2320    2.6412    0.0000 O   0  0  0  0  0  0  0  0  0  0  0  0
    2.0027    2.2585    0.0000 N   0  0  0  0  0  0  0  0  0  0  0  0
    3.2424    1.4139    0.0000 C   0  0  0  0  0  0  0  0  0  0  0  0
    1.9592    0.6371    0.0000 C   0  0  0  0  0  0  0  0  0  0  0  0
    1.9903   -0.8626    0.0000 C   0  0  0  0  0  0  0  0  0  0  0  0
    0.5573   -1.3058    0.0000 C   0  0  0  0  0  0  0  0  0  0  0  0
    2.5326   -2.2611    0.0000 C   0  0  0  0  0  0  0  0  0  0  0  0
    4.6698    0.9529    0.0000 C   0  0  0  0  0  0  0  0  0  0  0  0
    4.4165   -0.5256    0.0000 O   0  0  0  0  0  0  0  0  0  0  0  0
    6.1692    0.9127    0.0000 N   0  0  0  0  0  0  0  0  0  0  0  0
    8.2544    2.5940    0.0000 C   0  0  0  0  0  0  0  0  0  0  0  0
    9.5375    3.3709    0.0000 C   0  0  0  0  0  0  0  0  0  0  0  0
   10.9979    3.7133    0.0000 C   0  0  0  0  0  0  0  0  0  0  0  0
    9.9336    4.7703    0.0000 C   0  0  0  0  0  0  0  0  0  0  0  0
    9.7978    6.2642    0.0000 N   0  0  0  0  0  0  0  0  0  0  0  0
   10.6539    7.4958    0.0000 C   0  0  0  0  0  0  0  0  0  0  0  0
   12.1015    7.8890    0.0000 C   0  0  0  0  0  0  0  0  0  0  0  0
   13.4631    7.2597    0.0000 C   0  0  0  0  0  0  0  0  0  0  0  0
   14.1017    5.9025    0.0000 C   0  0  0  0  0  0  0  0  0  0  0  0
   13.7184    4.4523    0.0000 C   0  0  0  0  0  0  0  0  0  0  0  0
   12.4926    3.5877    0.0000 C   0  0  0  0  0  0  0  0  0  0  0  0
    7.2742    1.4585    0.0000 C   0  0  0  0  0  0  0  0  0  0  0  0
    5.9994    2.2491    0.0000 O   0  0  0  0  0  0  0  0  0  0  0  0
    6.6928    0.0758    0.0000 N   0  0  0  0  0  0  0  0  0  0  0  0
    6.5672   -1.4190    0.0000 C   0  0  0  0  0  0  0  0  0  0  0  0
    5.2528   -0.6962    0.0000 C   0  0  0  0  0  0  0  0  0  0  0  0
    3.9697   -1.4732    0.0000 C   0  0  0  0  0  0  0  0  0  0  0  0
    2.6553   -0.7504    0.0000 C   0  0  0  0  0  0  0  0  0  0  0  0
    1.3721   -1.5274    0.0000 C   0  0  0  0  0  0  0  0  0  0  0  0
    0.1556   -0.6498    0.0000 N   0  0  0  0  0  0  0  0  0  0  0  0
    6.9096   -2.8793    0.0000 C   0  0  0  0  0  0  0  0  0  0  0  0
    5.5207   -3.4460    0.0000 O   0  0  0  0  0  0  0  0  0  0  0  0
    7.6865   -4.1624    0.0000 N   0  0  0  0  0  0  0  0  0  0  0  0
    8.8220   -5.1427    0.0000 C   0  0  0  0  0  0  0  0  0  0  0  0
    7.4647   -5.7812    0.0000 C   0  0  0  0  0  0  0  0  0  0  0  0
    7.3390   -7.2760    0.0000 C   0  0  0  0  0  0  0  0  0  0  0  0
    5.9818   -7.9145    0.0000 C   0  0  0  0  0  0  0  0  0  0  0  0
    7.7322   -8.7235    0.0000 C   0  0  0  0  0  0  0  0  0  0  0  0
   10.2047   -5.7240    0.0000 C   0  0  0  0  0  0  0  0  0  0  0  0
    9.8468   -7.1807    0.0000 O   0  0  0  0  0  0  0  0  0  0  0  0
   11.6994   -5.8497    0.0000 N   0  0  0  0  0  0  0  0  0  0  0  0
   13.1598   -5.5072    0.0000 C   0  0  0  0  0  0  0  0  0  0  0  0
   12.8787   -6.9807    0.0000 C   0  0  0  0  0  0  0  0  0  0  0  0
   14.0141   -7.9609    0.0000 C   0  0  0  0  0  0  0  0  0  0  0  0
   13.7329   -9.4343    0.0000 C   0  0  0  0  0  0  0  0  0  0  0  0
   15.4163   -8.4936    0.0000 C   0  0  0  0  0  0  0  0  0  0  0  0
   14.4429   -4.7303    0.0000 C   0  0  0  0  0  0  0  0  0  0  0  0
   15.4110   -5.8761    0.0000 O   0  0  0  0  0  0  0  0  0  0  0  0
   15.4231   -3.5949    0.0000 N   0  0  0  0  0  0  0  0  0  0  0  0
   16.0045   -2.2121    0.0000 C   0  0  0  0  0  0  0  0  0  0  0  0
   16.1301   -0.7174    0.0000 C   0  0  0  0  0  0  0  0  0  0  0  0
   15.7877    0.7430    0.0000 C   0  0  0  0  0  0  0  0  0  0  0  0
   15.0108    2.0261    0.0000 C   0  0  0  0  0  0  0  0  0  0  0  0
   13.8754    3.0063    0.0000 C   0  0  0  0  0  0  0  0  0  0  0  0
   17.4707   -1.8953    0.0000 C   0  0  0  0  0  0  0  0  0  0  0  0
   17.0313   -3.3056    0.0000 C   0  0  0  0  0  0  0  0  0  0  0  0
   16.7759   -4.7837    0.0000 O   0  0  0  0  0  0  0  0  0  0  0  0
   18.4917   -2.9632    0.0000 N   0  0  0  0  0  0  0  0  0  0  0  0
   19.5184   -4.0568    0.0000 C   0  0  0  0  0  0  0  0  0  0  0  0
   20.1092   -5.4355    0.0000 C   0  0  0  0  0  0  0  0  0  0  0  0
   19.2106   -6.6365    0.0000 C   0  0  0  0  0  0  0  0  0  0  0  0
   19.8014   -8.0153    0.0000 C   0  0  0  0  0  0  0  0  0  0  0  0
   18.9028   -9.2163    0.0000 O   0  0  0  0  0  0  0  0  0  0  0  0
   21.2908   -8.1930    0.0000 O   0  0  0  0  0  0  0  0  0  0  0  0
   20.9788   -3.7143    0.0000 C   0  0  0  0  0  0  0  0  0  0  0  0
   21.4124   -2.2784    0.0000 O   0  0  0  0  0  0  0  0  0  0  0  0
   22.0055   -4.8079    0.0000 N   0  0  0  0  0  0  0  0  0  0  0  0
   23.4659   -4.4654    0.0000 C   0  0  0  0  0  0  0  0  0  0  0  0
   24.7211   -3.6442    0.0000 C   0  0  0  0  0  0  0  0  0  0  0  0
   26.0600   -4.3206    0.0000 C   0  0  0  0  0  0  0  0  0  0  0  0
   27.3152   -3.4994    0.0000 N   0  0  0  0  0  0  0  0  0  0  0  0
   26.3255   -5.7969    0.0000 O   0  0  0  0  0  0  0  0  0  0  0  0
   24.4927   -5.5590    0.0000 C   0  0  0  0  0  0  0  0  0  0  0  0
   25.9839   -5.3971    0.0000 O   0  0  0  0  0  0  0  0  0  0  0  0
   24.0590   -6.9949    0.0000 O   0  0  0  0  0  0  0  0  0  0  0  0
  -14.0479   -9.5561    0.0000 H   0  0  0  0  0  0  0  0  0  0  0  0
  -18.5400   -9.6184    0.0000 H   0  0  0  0  0  0  0  0  0  0  0  0
  -20.1091  -12.1754    0.0000 H   0  0  0  0  0  0  0  0  0  0  0  0
  -14.1461  -11.9723    0.0000 H   0  0  0  0  0  0  0  0  0  0  0  0
  -12.5981  -18.9664    0.0000 H   0  0  0  0  0  0  0  0  0  0  0  0
  -17.7079  -19.9100    0.0000 H   0  0  0  0  0  0  0  0  0  0  0  0
  -18.2527  -16.9599    0.0000 H   0  0  0  0  0  0  0  0  0  0  0  0
  -16.0218  -21.8867    0.0000 H   0  0  0  0  0  0  0  0  0  0  0  0
  -16.5150  -12.0629    0.0000 H   0  0  0  0  0  0  0  0  0  0  0  0
  -14.0507  -10.0938    0.0000 H   0  0  0  0  0  0  0  0  0  0  0  0
  -10.8604  -14.0694    0.0000 H   0  0  0  0  0  0  0  0  0  0  0  0
   -9.9916  -11.6209    0.0000 H   0  0  0  0  0  0  0  0  0  0  0  0
  -13.9719   -7.1420    0.0000 H   0  0  0  0  0  0  0  0  0  0  0  0
  -17.3608   -6.7161    0.0000 H   0  0  0  0  0  0  0  0  0  0  0  0
  -17.5164   -5.0897    0.0000 H   0  0  0  0  0  0  0  0  0  0  0  0
  -14.1660   -5.3550    0.0000 H   0  0  0  0  0  0  0  0  0  0  0  0
  -14.1222   -3.7217    0.0000 H   0  0  0  0  0  0  0  0  0  0  0  0
  -13.8325   -1.9477    0.0000 H   0  0  0  0  0  0  0  0  0  0  0  0
  -14.6241   -0.1138    0.0000 H   0  0  0  0  0  0  0  0  0  0  0  0
  -18.6915   -1.8199    0.0000 H   0  0  0  0  0  0  0  0  0  0  0  0
  -17.9363   -0.2031    0.0000 H   0  0  0  0  0  0  0  0  0  0  0  0
  -15.5052   -2.8888    0.0000 H   0  0  0  0  0  0  0  0  0  0  0  0
  -18.3200   -5.4315    0.0000 H   0  0  0  0  0  0  0  0  0  0  0  0
  -19.5979   -4.4135    0.0000 H   0  0  0  0  0  0  0  0  0  0  0  0
  -19.0455   -2.7168    0.0000 H   0  0  0  0  0  0  0  0  0  0  0  0
  -17.0703   -5.6026    0.0000 H   0  0  0  0  0  0  0  0  0  0  0  0
  -15.2926   -5.4483    0.0000 H   0  0  0  0  0  0  0  0  0  0  0  0
  -15.2337   -3.2549    0.0000 H   0  0  0  0  0  0  0  0  0  0  0  0
  -13.6979    1.2772    0.0000 H   0  0  0  0  0  0  0  0  0  0  0  0
  -13.8144    3.2713    0.0000 H   0  0  0  0  0  0  0  0  0  0  0  0
  -18.2361    2.8767    0.0000 H   0  0  0  0  0  0  0  0  0  0  0  0
  -17.1366    4.2822    0.0000 H   0  0  0  0  0  0  0  0  0  0  0  0
  -18.4595    0.8918    0.0000 H   0  0  0  0  0  0  0  0  0  0  0  0
  -12.4683    4.2616    0.0000 H   0  0  0  0  0  0  0  0  0  0  0  0
  -11.8958    6.1753    0.0000 H   0  0  0  0  0  0  0  0  0  0  0  0
  -16.1858    7.3169    0.0000 H   0  0  0  0  0  0  0  0  0  0  0  0
  -14.6720    8.2615    0.0000 H   0  0  0  0  0  0  0  0  0  0  0  0
  -15.8751    4.0181    0.0000 H   0  0  0  0  0  0  0  0  0  0  0  0
  -14.3546    4.6158    0.0000 H   0  0  0  0  0  0  0  0  0  0  0  0
  -19.3586    4.2898    0.0000 H   0  0  0  0  0  0  0  0  0  0  0  0
  -17.5145    2.7639    0.0000 H   0  0  0  0  0  0  0  0  0  0  0  0
  -10.2922    6.6455    0.0000 H   0  0  0  0  0  0  0  0  0  0  0  0
   -9.0997    8.2480    0.0000 H   0  0  0  0  0  0  0  0  0  0  0  0
  -12.7406   10.7880    0.0000 H   0  0  0  0  0  0  0  0  0  0  0  0
  -10.8332   11.0718    0.0000 H   0  0  0  0  0  0  0  0  0  0  0  0
  -13.5769    7.5818    0.0000 H   0  0  0  0  0  0  0  0  0  0  0  0
  -11.9435    7.6235    0.0000 H   0  0  0  0  0  0  0  0  0  0  0  0
  -15.8036   11.4453    0.0000 H   0  0  0  0  0  0  0  0  0  0  0  0
   -7.4320    8.1414    0.0000 H   0  0  0  0  0  0  0  0  0  0  0  0
   -5.7633    9.2394    0.0000 H   0  0  0  0  0  0  0  0  0  0  0  0
   -6.4265   12.4857    0.0000 H   0  0  0  0  0  0  0  0  0  0  0  0
   -9.7993   13.0941    0.0000 H   0  0  0  0  0  0  0  0  0  0  0  0
  -10.2382   11.9351    0.0000 H   0  0  0  0  0  0  0  0  0  0  0  0
  -10.1983   10.1446    0.0000 H   0  0  0  0  0  0  0  0  0  0  0  0
   -8.8957    9.5852    0.0000 H   0  0  0  0  0  0  0  0  0  0  0  0
   -4.0512    8.5431    0.0000 H   0  0  0  0  0  0  0  0  0  0  0  0
   -2.2891    9.0298    0.0000 H   0  0  0  0  0  0  0  0  0  0  0  0
   -3.4455   13.3158    0.0000 H   0  0  0  0  0  0  0  0  0  0  0  0
   -1.8019   12.3072    0.0000 H   0  0  0  0  0  0  0  0  0  0  0  0
   -4.6545   14.4695    0.0000 H   0  0  0  0  0  0  0  0  0  0  0  0
   -7.6534   14.5500    0.0000 H   0  0  0  0  0  0  0  0  0  0  0  0
   -9.2065   12.1756    0.0000 H   0  0  0  0  0  0  0  0  0  0  0  0
   -7.9428    9.4609    0.0000 H   0  0  0  0  0  0  0  0  0  0  0  0
   -4.9599    9.1979    0.0000 H   0  0  0  0  0  0  0  0  0  0  0  0
   -1.2300    7.9813    0.0000 H   0  0  0  0  0  0  0  0  0  0  0  0
    2.0428   11.7111    0.0000 H   0  0  0  0  0  0  0  0  0  0  0  0
    0.8558   10.8528    0.0000 H   0  0  0  0  0  0  0  0  0  0  0  0
    3.5706   12.4963    0.0000 H   0  0  0  0  0  0  0  0  0  0  0  0
    2.3720   11.9874    0.0000 H   0  0  0  0  0  0  0  0  0  0  0  0
    5.4399   12.7995    0.0000 H   0  0  0  0  0  0  0  0  0  0  0  0
    4.1465   12.6488    0.0000 H   0  0  0  0  0  0  0  0  0  0  0  0
    7.3189   12.5637    0.0000 H   0  0  0  0  0  0  0  0  0  0  0  0
    6.0354   12.7835    0.0000 H   0  0  0  0  0  0  0  0  0  0  0  0
    9.0553   11.8080    0.0000 H   0  0  0  0  0  0  0  0  0  0  0  0
    7.8857   12.3806    0.0000 H   0  0  0  0  0  0  0  0  0  0  0  0
   10.5661   10.4199    0.0000 H   0  0  0  0  0  0  0  0  0  0  0  0
    9.5476   11.4727    0.0000 H   0  0  0  0  0  0  0  0  0  0  0  0
   11.3508    9.6533    0.0000 H   0  0  0  0  0  0  0  0  0  0  0  0
   -0.7678   10.9903    0.0000 H   0  0  0  0  0  0  0  0  0  0  0  0
    0.7309   11.9708    0.0000 H   0  0  0  0  0  0  0  0  0  0  0  0
    1.8208   11.3874    0.0000 H   0  0  0  0  0  0  0  0  0  0  0  0
   -1.2082    6.3288    0.0000 H   0  0  0  0  0  0  0  0  0  0  0  0
   -0.5475    3.6918    0.0000 H   0  0  0  0  0  0  0  0  0  0  0  0
   -2.1462    6.1812    0.0000 H   0  0  0  0  0  0  0  0  0  0  0  0
   -0.6023    6.7158    0.0000 H   0  0  0  0  0  0  0  0  0  0  0  0
   -2.8741    1.7818    0.0000 H   0  0  0  0  0  0  0  0  0  0  0  0
    0.9903    1.1516    0.0000 H   0  0  0  0  0  0  0  0  0  0  0  0
    3.7713    0.0103    0.0000 H   0  0  0  0  0  0  0  0  0  0  0  0
    0.4610    0.7107    0.0000 H   0  0  0  0  0  0  0  0  0  0  0  0
    1.0947    1.8629    0.0000 H   0  0  0  0  0  0  0  0  0  0  0  0
    3.4863   -0.7530    0.0000 H   0  0  0  0  0  0  0  0  0  0  0  0
    0.2894   -3.1284    0.0000 H   0  0  0  0  0  0  0  0  0  0  0  0
   -0.6783   -2.0869    0.0000 H   0  0  0  0  0  0  0  0  0  0  0  0
   -0.0811   -0.3674    0.0000 H   0  0  0  0  0  0  0  0  0  0  0  0
    1.7419   -3.5359    0.0000 H   0  0  0  0  0  0  0  0  0  0  0  0
    3.3809   -3.5236    0.0000 H   0  0  0  0  0  0  0  0  0  0  0  0
    3.5896   -1.1969    0.0000 H   0  0  0  0  0  0  0  0  0  0  0  0
    5.9771   -0.5750    0.0000 H   0  0  0  0  0  0  0  0  0  0  0  0
    7.2863    3.7397    0.0000 H   0  0  0  0  0  0  0  0  0  0  0  0
    9.4538    4.8686    0.0000 H   0  0  0  0  0  0  0  0  0  0  0  0
    8.2106    4.0705    0.0000 H   0  0  0  0  0  0  0  0  0  0  0  0
    8.5086    4.3020    0.0000 H   0  0  0  0  0  0  0  0  0  0  0  0
    8.3476    6.6475    0.0000 H   0  0  0  0  0  0  0  0  0  0  0  0
   12.2271    9.3838    0.0000 H   0  0  0  0  0  0  0  0  0  0  0  0
   14.5201    8.3240    0.0000 H   0  0  0  0  0  0  0  0  0  0  0  0
   15.5955    6.0383    0.0000 H   0  0  0  0  0  0  0  0  0  0  0  0
   15.1206    3.9196    0.0000 H   0  0  0  0  0  0  0  0  0  0  0  0
    5.1928    0.0706    0.0000 H   0  0  0  0  0  0  0  0  0  0  0  0
    5.4918   -2.4646    0.0000 H   0  0  0  0  0  0  0  0  0  0  0  0
    4.1346    0.3036    0.0000 H   0  0  0  0  0  0  0  0  0  0  0  0
    5.5338    0.7772    0.0000 H   0  0  0  0  0  0  0  0  0  0  0  0
    3.5111   -2.9014    0.0000 H   0  0  0  0  0  0  0  0  0  0  0  0
    4.8127   -2.7139    0.0000 H   0  0  0  0  0  0  0  0  0  0  0  0
    1.4235    0.1056    0.0000 H   0  0  0  0  0  0  0  0  0  0  0  0
    3.5952    0.4185    0.0000 H   0  0  0  0  0  0  0  0  0  0  0  0
    0.5817   -2.8022    0.0000 H   0  0  0  0  0  0  0  0  0  0  0  0
    2.0576   -2.8616    0.0000 H   0  0  0  0  0  0  0  0  0  0  0  0
   -1.3286   -1.4063    0.0000 H   0  0  0  0  0  0  0  0  0  0  0  0
   -0.1365    0.6692    0.0000 H   0  0  0  0  0  0  0  0  0  0  0  0
    6.5408   -5.1305    0.0000 H   0  0  0  0  0  0  0  0  0  0  0  0
    9.0358   -6.6273    0.0000 H   0  0  0  0  0  0  0  0  0  0  0  0
    5.9654   -5.7340    0.0000 H   0  0  0  0  0  0  0  0  0  0  0  0
    6.7329   -4.4718    0.0000 H   0  0  0  0  0  0  0  0  0  0  0  0
    8.8383   -7.3232    0.0000 H   0  0  0  0  0  0  0  0  0  0  0  0
    5.6749   -9.3828    0.0000 H   0  0  0  0  0  0  0  0  0  0  0  0
    4.4879   -8.0504    0.0000 H   0  0  0  0  0  0  0  0  0  0  0  0
    5.4151   -6.5257    0.0000 H   0  0  0  0  0  0  0  0  0  0  0  0
    6.8128   -9.9087    0.0000 H   0  0  0  0  0  0  0  0  0  0  0  0
    8.5968   -9.9493    0.0000 H   0  0  0  0  0  0  0  0  0  0  0  0
    9.0895   -8.0849    0.0000 H   0  0  0  0  0  0  0  0  0  0  0  0
   11.8092   -7.3456    0.0000 H   0  0  0  0  0  0  0  0  0  0  0  0
   14.4867   -6.2069    0.0000 H   0  0  0  0  0  0  0  0  0  0  0  0
   11.9592   -8.1658    0.0000 H   0  0  0  0  0  0  0  0  0  0  0  0
   11.3892   -6.8030    0.0000 H   0  0  0  0  0  0  0  0  0  0  0  0
   14.9336   -6.7757    0.0000 H   0  0  0  0  0  0  0  0  0  0  0  0
   14.7404  -10.5456    0.0000 H   0  0  0  0  0  0  0  0  0  0  0  0
   12.9647  -10.7227    0.0000 H   0  0  0  0  0  0  0  0  0  0  0  0
   12.2762   -9.0764    0.0000 H   0  0  0  0  0  0  0  0  0  0  0  0
   15.8347   -9.9341    0.0000 H   0  0  0  0  0  0  0  0  0  0  0  0
   16.9161   -8.5147    0.0000 H   0  0  0  0  0  0  0  0  0  0  0  0
   15.6975   -7.0202    0.0000 H   0  0  0  0  0  0  0  0  0  0  0  0
   16.5921   -4.5349    0.0000 H   0  0  0  0  0  0  0  0  0  0  0  0
   17.5229   -1.2745    0.0000 H   0  0  0  0  0  0  0  0  0  0  0  0
   17.3250    0.1894    0.0000 H   0  0  0  0  0  0  0  0  0  0  0  0
   17.2844    0.6435    0.0000 H   0  0  0  0  0  0  0  0  0  0  0  0
   16.7876    1.8611    0.0000 H   0  0  0  0  0  0  0  0  0  0  0  0
   16.4650    2.3940    0.0000 H   0  0  0  0  0  0  0  0  0  0  0  0
   15.6162    3.3985    0.0000 H   0  0  0  0  0  0  0  0  0  0  0  0
   14.8154    4.1752    0.0000 H   0  0  0  0  0  0  0  0  0  0  0  0
   18.7188   -2.4125    0.0000 H   0  0  0  0  0  0  0  0  0  0  0  0
   18.4383   -0.6437    0.0000 H   0  0  0  0  0  0  0  0  0  0  0  0
   17.2739   -0.2282    0.0000 H   0  0  0  0  0  0  0  0  0  0  0  0
   19.0971   -1.5909    0.0000 H   0  0  0  0  0  0  0  0  0  0  0  0
   18.1724   -4.7189    0.0000 H   0  0  0  0  0  0  0  0  0  0  0  0
   20.9950   -6.6460    0.0000 H   0  0  0  0  0  0  0  0  0  0  0  0
   21.5258   -4.9424    0.0000 H   0  0  0  0  0  0  0  0  0  0  0  0
   17.9554   -7.4578    0.0000 H   0  0  0  0  0  0  0  0  0  0  0  0
   18.0582   -5.6763    0.0000 H   0  0  0  0  0  0  0  0  0  0  0  0
   21.8816   -9.5717    0.0000 H   0  0  0  0  0  0  0  0  0  0  0  0
   21.7501   -6.2860    0.0000 H   0  0  0  0  0  0  0  0  0  0  0  0
   22.8751   -3.0867    0.0000 H   0  0  0  0  0  0  0  0  0  0  0  0
   25.6198   -2.4432    0.0000 H   0  0  0  0  0  0  0  0  0  0  0  0
   23.6944   -2.5507    0.0000 H   0  0  0  0  0  0  0  0  0  0  0  0
   28.6540   -4.1758    0.0000 H   0  0  0  0  0  0  0  0  0  0  0  0
   27.2315   -2.0017    0.0000 H   0  0  0  0  0  0  0  0  0  0  0  0
   25.0858   -8.0885    0.0000 H   0  0  0  0  0  0  0  0  0  0  0  0
  1  2  1  0
  2  3  1  0
  3  4  2  0
  4  5  1  0
  5  6  2  0
  6  7  1  0
  7  8  2  0
  7  9  1  0
  9 10  1  0
 10 11  1  0
 11 12  2  0
  9 13  1  0
 13 14  1  0
 14 15  2  0
 15 16  1  0
 16 17  2  0
 17 18  1  0
 16 19  1  0
 14 20  1  0
 20 21  1  0
 21 22  2  0
 22 23  1  0
 23 24  2  0
 24 25  1  0
 25 26  2  0
 25 27  1  0
  1 28  2  0
  1 29  1  0
 29 30  1  0
 30 31  1  0
 31 32  1  0
 32 33  2  0
 32 34  1  0
 34 35  1  0
 35 36  1  0
 36 37  1  0
 37 38  1  0
 37 39  1  0
 35 40  1  0
 40 41  2  0
 40 42  1  0
 42 43  1  0
 43 44  1  0
 44 45  1  0
 43 46  1  0
 46 47  2  0
 46 48  1  0
 48 49  1  0
 49 50  1  0
 50 51  1  0
 51 52  1  0
 52 53  1  0
 52 54  2  0
 49 55  1  0
 55 56  2  0
 55 57  1  0
 57 58  1  0
 58 59  1  0
 59 60  1  0
 60 61  1  0
 61 62  2  0
 61 63  1  0
 58 64  1  0
 64 65  2  0
 64 66  1  0
 66 67  1  0
 67 68  1  0
 68 69  1  0
 68 70  1  0
 67 71  1  0
 71 72  2  0
 71 73  1  0
 73 74  1  0
 74 75  1  0
 75 76  1  0
 76 77  2  0
 77 78  1  0
 78 79  2  0
 79 80  1  0
 80 81  2  0
 74 82  1  0
 82 83  2  0
 82 84  1  0
 85 84  1  6
 85 86  1  0
 86 87  1  0
 87 88  1  0
 88 89  1  0
 89 90  1  0
 90 91  1  0
 91 92  1  0
 85 93  1  0
 85 94  1  0
 94 95  2  0
 94 96  1  0
 96 97  1  0
 97 98  1  0
 98 99  1  0
 99100  2  0
 99101  1  0
 97102  1  0
102103  2  0
102104  1  0
104105  1  0
105106  1  0
106107  1  0
107108  1  0
107109  1  0
105110  1  0
110111  2  0
110112  1  0
112113  1  0
113114  1  0
114115  1  0
115116  2  0
116117  1  0
117118  1  0
118119  1  0
119120  2  0
120121  1  0
121122  2  0
122123  1  0
113124  1  0
124125  2  0
124126  1  0
126127  1  0
127128  1  0
128129  1  0
129130  1  0
130131  1  0
131132  1  0
127133  1  0
133134  2  0
133135  1  0
135136  1  0
136137  1  0
137138  1  0
138139  1  0
138140  1  0
136141  1  0
141142  2  0
141143  1  0
143144  1  0
144145  1  0
145146  1  0
146147  1  0
146148  1  0
144149  1  0
149150  2  0
149151  1  0
151152  1  0
152153  1  0
153154  1  0
154155  1  0
155156  1  0
152157  1  0
152158  1  1
158159  2  0
158160  1  0
160161  1  0
161162  1  0
162163  1  0
163164  1  0
164165  2  0
164166  1  0
161167  1  0
167168  2  0
167169  1  0
169170  1  0
170171  1  0
171172  1  0
172173  1  0
172174  2  0
170175  1  0
175176  2  0
175177  1  0
  8  3  1  0
 81 76  1  0
123115  1  0
 11  6  1  0
 92118  2  0
156123  2  0
 18 13  2  0
 22  9  1  0
 26 21  1  0
  2178  1  0
  4179  1  0
  5180  1  0
  8181  1  0
 15182  1  0
 17183  1  0
 18184  1  0
 19185  1  0
 23186  1  0
 24187  1  0
 26188  1  0
 27189  1  0
 29190  1  0
 30191  1  0
 30192  1  0
 31193  1  0
 31194  1  0
 34195  1  0
 35196  1  1
 36197  1  0
 36198  1  0
 37199  1  0
 38200  1  0
 38201  1  0
 38202  1  0
 39203  1  0
 39204  1  0
 39205  1  0
 42206  1  0
 43207  1  1
 44208  1  0
 44209  1  0
 45210  1  0
 48211  1  0
 49212  1  1
 50213  1  0
 50214  1  0
 51215  1  0
 51216  1  0
 53217  1  0
 53218  1  0
 57219  1  0
 58220  1  1
 59221  1  0
 59222  1  0
 60223  1  0
 60224  1  0
 63225  1  0
 66226  1  0
 67227  1  1
 68228  1  6
 69229  1  0
 70230  1  0
 70231  1  0
 70232  1  0
 73233  1  0
 74234  1  1
 75235  1  0
 75236  1  0
 77237  1  0
 78238  1  0
 79239  1  0
 80240  1  0
 81241  1  0
 84242  1  0
 86243  1  0
 86244  1  0
 87245  1  0
 87246  1  0
 88247  1  0
 88248  1  0
 89249  1  0
 89250  1  0
 90251  1  0
 90252  1  0
 91253  1  0
 91254  1  0
 92255  1  0
 93256  1  0
 93257  1  0
 93258  1  0
 96259  1  0
 97260  1  6
 98261  1  0
 98262  1  0
101263  1  0
104264  1  0
105265  1  6
106266  1  0
106267  1  0
107268  1  0
108269  1  0
108270  1  0
108271  1  0
109272  1  0
109273  1  0
109274  1  0
112275  1  0
113276  1  1
114277  1  0
114278  1  0
116279  1  0
117280  1  0
119281  1  0
120282  1  0
121283  1  0
122284  1  0
126285  1  0
127286  1  6
128287  1  0
128288  1  0
129289  1  0
129290  1  0
130291  1  0
130292  1  0
131293  1  0
131294  1  0
132295  1  0
132296  1  0
135297  1  0
136298  1  6
137299  1  0
137300  1  0
138301  1  0
139302  1  0
139303  1  0
139304  1  0
140305  1  0
140306  1  0
140307  1  0
143308  1  0
144309  1  6
145310  1  0
145311  1  0
146312  1  0
147313  1  0
147314  1  0
147315  1  0
148316  1  0
148317  1  0
148318  1  0
151319  1  0
153320  1  0
153321  1  0
154322  1  0
154323  1  0
155324  1  0
155325  1  0
156326  1  0
157327  1  0
157328  1  0
157329  1  0
160330  1  0
161331  1  6
162332  1  0
162333  1  0
163334  1  0
163335  1  0
166336  1  0
169337  1  0
170338  1  1
171339  1  0
171340  1  0
173341  1  0
173342  1  0
177343  1  0
M  END
