
     RDKit          2D

175179  0  0  0  0  0  0  0  0999 V2000
   10.3473   -9.3268    0.0000 N   0  0  0  0  0  0  0  0  0  0  0  0
    9.8155   -7.9242    0.0000 C   0  0  0  0  0  0  0  0  0  0  0  0
   10.7643   -6.7624    0.0000 C   0  0  0  0  0  0  0  0  0  0  0  0
   10.2325   -5.3598    0.0000 C   0  0  0  0  0  0  0  0  0  0  0  0
    8.7519   -5.1191    0.0000 O   0  0  0  0  0  0  0  0  0  0  0  0
   11.1812   -4.1980    0.0000 N   0  0  0  0  0  0  0  0  0  0  0  0
   10.6494   -2.7954    0.0000 C   0  0  0  0  0  0  0  0  0  0  0  0
   12.1230   -2.5153    0.0000 C   0  0  0  0  0  0  0  0  0  0  0  0
   12.6172   -1.0990    0.0000 C   0  0  0  0  0  0  0  0  0  0  0  0
   14.0908   -0.8188    0.0000 C   0  0  0  0  0  0  0  0  0  0  0  0
   14.5849    0.5974    0.0000 C   0  0  0  0  0  0  0  0  0  0  0  0
   13.6055    1.7335    0.0000 C   0  0  0  0  0  0  0  0  0  0  0  0
   12.1319    1.4534    0.0000 C   0  0  0  0  0  0  0  0  0  0  0  0
   11.6377    0.0371    0.0000 C   0  0  0  0  0  0  0  0  0  0  0  0
    9.6700   -1.6594    0.0000 C   0  0  0  0  0  0  0  0  0  0  0  0
    9.9326   -0.9067    0.0000 O   0  0  0  0  0  0  0  0  0  0  0  0
    8.1964   -1.9395    0.0000 N   0  0  0  0  0  0  0  0  0  0  0  0
    7.2169   -0.8034    0.0000 C   0  0  0  0  0  0  0  0  0  0  0  0
    8.5058   -0.0362    0.0000 C   0  0  0  0  0  0  0  0  0  0  0  0
    8.4858    1.4637    0.0000 C   0  0  0  0  0  0  0  0  0  0  0  0
    9.7747    2.2310    0.0000 S   0  0  0  0  0  0  0  0  0  0  0  0
    9.7547    3.7309    0.0000 C   0  0  0  0  0  0  0  0  0  0  0  0
    5.9080   -0.0709    0.0000 C   0  0  0  0  0  0  0  0  0  0  0  0
    6.0709    1.4203    0.0000 O   0  0  0  0  0  0  0  0  0  0  0  0
    4.6191   -0.8381    0.0000 N   0  0  0  0  0  0  0  0  0  0  0  0
    3.3101   -0.1055    0.0000 C   0  0  0  0  0  0  0  0  0  0  0  0
    3.1807   -1.6000    0.0000 C   0  0  0  0  0  0  0  0  0  0  0  0
    2.6166   -2.9898    0.0000 C   0  0  0  0  0  0  0  0  0  0  0  0
    1.6678   -4.1517    0.0000 C   0  0  0  0  0  0  0  0  0  0  0  0
    0.4188   -4.9822    0.0000 C   0  0  0  0  0  0  0  0  0  0  0  0
    4.5162    0.7863    0.0000 C   0  0  0  0  0  0  0  0  0  0  0  0
    2.9933    1.3606    0.0000 C   0  0  0  0  0  0  0  0  0  0  0  0
    4.3959    1.8924    0.0000 O   0  0  0  0  0  0  0  0  0  0  0  0
    2.2584    2.6682    0.0000 N   0  0  0  0  0  0  0  0  0  0  0  0
    1.1707    3.7012    0.0000 C   0  0  0  0  0  0  0  0  0  0  0  0
    1.2255    5.2002    0.0000 C   0  0  0  0  0  0  0  0  0  0  0  0
    2.5510    5.9022    0.0000 C   0  0  0  0  0  0  0  0  0  0  0  0
    3.8218    5.1053    0.0000 C   0  0  0  0  0  0  0  0  0  0  0  0
    5.1474    5.8074    0.0000 C   0  0  0  0  0  0  0  0  0  0  0  0
    5.2021    7.3064    0.0000 C   0  0  0  0  0  0  0  0  0  0  0  0
    6.5277    8.0085    0.0000 O   0  0  0  0  0  0  0  0  0  0  0  0
    3.9313    8.1033    0.0000 C   0  0  0  0  0  0  0  0  0  0  0  0
    2.6058    7.4012    0.0000 C   0  0  0  0  0  0  0  0  0  0  0  0
   -0.1731    4.3676    0.0000 C   0  0  0  0  0  0  0  0  0  0  0  0
    0.2856    5.7957    0.0000 O   0  0  0  0  0  0  0  0  0  0  0  0
   -1.6537    4.6083    0.0000 N   0  0  0  0  0  0  0  0  0  0  0  0
   -3.1394    4.4019    0.0000 C   0  0  0  0  0  0  0  0  0  0  0  0
   -4.2772    5.3794    0.0000 C   0  0  0  0  0  0  0  0  0  0  0  0
   -3.9997    6.8535    0.0000 C   0  0  0  0  0  0  0  0  0  0  0  0
   -2.6440    7.4954    0.0000 C   0  0  0  0  0  0  0  0  0  0  0  0
   -2.8355    8.9831    0.0000 N   0  0  0  0  0  0  0  0  0  0  0  0
   -4.3096    9.2606    0.0000 C   0  0  0  0  0  0  0  0  0  0  0  0
   -5.0897   10.5418    0.0000 C   0  0  0  0  0  0  0  0  0  0  0  0
   -6.5893   10.5068    0.0000 C   0  0  0  0  0  0  0  0  0  0  0  0
   -7.3088    9.1907    0.0000 C   0  0  0  0  0  0  0  0  0  0  0  0
   -6.5287    7.9095    0.0000 C   0  0  0  0  0  0  0  0  0  0  0  0
   -5.0291    7.9445    0.0000 C   0  0  0  0  0  0  0  0  0  0  0  0
   -4.4983    3.7668    0.0000 C   0  0  0  0  0  0  0  0  0  0  0  0
   -5.3289    5.0159    0.0000 O   0  0  0  0  0  0  0  0  0  0  0  0
   -5.6096    2.7594    0.0000 N   0  0  0  0  0  0  0  0  0  0  0  0
   -6.3746    1.4691    0.0000 C   0  0  0  0  0  0  0  0  0  0  0  0
   -7.8482    1.1889    0.0000 C   0  0  0  0  0  0  0  0  0  0  0  0
   -8.8277    2.3250    0.0000 C   0  0  0  0  0  0  0  0  0  0  0  0
  -10.3013    2.0448    0.0000 C   0  0  0  0  0  0  0  0  0  0  0  0
  -11.2807    3.1809    0.0000 C   0  0  0  0  0  0  0  0  0  0  0  0
  -12.7543    2.9007    0.0000 N   0  0  0  0  0  0  0  0  0  0  0  0
   -6.7253    0.0107    0.0000 C   0  0  0  0  0  0  0  0  0  0  0  0
   -8.2197    0.1401    0.0000 O   0  0  0  0  0  0  0  0  0  0  0  0
   -6.6305   -1.4863    0.0000 N   0  0  0  0  0  0  0  0  0  0  0  0
   -6.0987   -2.8889    0.0000 C   0  0  0  0  0  0  0  0  0  0  0  0
   -5.1771   -4.0724    0.0000 C   0  0  0  0  0  0  0  0  0  0  0  0
   -3.9476   -4.9317    0.0000 C   0  0  0  0  0  0  0  0  0  0  0  0
   -2.5195   -5.3904    0.0000 C   0  0  0  0  0  0  0  0  0  0  0  0
   -1.0196   -5.4077    0.0000 C   0  0  0  0  0  0  0  0  0  0  0  0
   -7.5959   -2.7968    0.0000 C   0  0  0  0  0  0  0  0  0  0  0  0
   -6.7985   -4.2157    0.0000 C   0  0  0  0  0  0  0  0  0  0  0  0
   -6.3302   -5.6407    0.0000 O   0  0  0  0  0  0  0  0  0  0  0  0
   -8.2974   -4.2731    0.0000 N   0  0  0  0  0  0  0  0  0  0  0  0
   -8.9971   -5.5999    0.0000 C   0  0  0  0  0  0  0  0  0  0  0  0
   -9.2008   -7.0860    0.0000 C   0  0  0  0  0  0  0  0  0  0  0  0
  -10.5897   -7.6526    0.0000 C   0  0  0  0  0  0  0  0  0  0  0  0
  -10.7934   -9.1387    0.0000 C   0  0  0  0  0  0  0  0  0  0  0  0
  -12.0886   -7.7100    0.0000 C   0  0  0  0  0  0  0  0  0  0  0  0
  -10.4960   -5.6573    0.0000 C   0  0  0  0  0  0  0  0  0  0  0  0
  -11.3522   -6.8889    0.0000 O   0  0  0  0  0  0  0  0  0  0  0  0
  -11.2952   -4.3880    0.0000 O   0  0  0  0  0  0  0  0  0  0  0  0
    9.3986  -10.4886    0.0000 H   0  0  0  0  0  0  0  0  0  0  0  0
   11.8279   -9.5675    0.0000 H   0  0  0  0  0  0  0  0  0  0  0  0
    8.5266   -8.6915    0.0000 H   0  0  0  0  0  0  0  0  0  0  0  0
    8.8361   -6.7882    0.0000 H   0  0  0  0  0  0  0  0  0  0  0  0
   11.7437   -7.8985    0.0000 H   0  0  0  0  0  0  0  0  0  0  0  0
   12.0532   -5.9951    0.0000 H   0  0  0  0  0  0  0  0  0  0  0  0
   12.1261   -4.4732    0.0000 H   0  0  0  0  0  0  0  0  0  0  0  0
    9.3605   -3.5627    0.0000 H   0  0  0  0  0  0  0  0  0  0  0  0
   13.6036   -2.7560    0.0000 H   0  0  0  0  0  0  0  0  0  0  0  0
   12.2560   -3.4904    0.0000 H   0  0  0  0  0  0  0  0  0  0  0  0
   15.0702   -1.9549    0.0000 H   0  0  0  0  0  0  0  0  0  0  0  0
   16.0585    0.8776    0.0000 H   0  0  0  0  0  0  0  0  0  0  0  0
   14.0996    3.1498    0.0000 H   0  0  0  0  0  0  0  0  0  0  0  0
   11.1524    2.5894    0.0000 H   0  0  0  0  0  0  0  0  0  0  0  0
   10.6551    0.0927    0.0000 H   0  0  0  0  0  0  0  0  0  0  0  0
    7.7022   -3.3558    0.0000 H   0  0  0  0  0  0  0  0  0  0  0  0
    6.2682   -1.9653    0.0000 H   0  0  0  0  0  0  0  0  0  0  0  0
    9.8678    0.5923    0.0000 H   0  0  0  0  0  0  0  0  0  0  0  0
    9.0109   -0.7638    0.0000 H   0  0  0  0  0  0  0  0  0  0  0  0
    7.7870    2.7910    0.0000 H   0  0  0  0  0  0  0  0  0  0  0  0
    7.0122    1.1835    0.0000 H   0  0  0  0  0  0  0  0  0  0  0  0
   11.0436    4.4981    0.0000 H   0  0  0  0  0  0  0  0  0  0  0  0
    9.2229    5.1334    0.0000 H   0  0  0  0  0  0  0  0  0  0  0  0
    8.2579    3.6324    0.0000 H   0  0  0  0  0  0  0  0  0  0  0  0
    5.0014   -2.2886    0.0000 H   0  0  0  0  0  0  0  0  0  0  0  0
    4.6742   -1.4605    0.0000 H   0  0  0  0  0  0  0  0  0  0  0  0
    4.2156   -2.6858    0.0000 H   0  0  0  0  0  0  0  0  0  0  0  0
    4.0848   -3.2968    0.0000 H   0  0  0  0  0  0  0  0  0  0  0  0
    3.4441   -4.2409    0.0000 H   0  0  0  0  0  0  0  0  0  0  0  0
    3.0591   -4.7124    0.0000 H   0  0  0  0  0  0  0  0  0  0  0  0
    1.9112   -5.6318    0.0000 H   0  0  0  0  0  0  0  0  0  0  0  0
    1.0539   -6.3411    0.0000 H   0  0  0  0  0  0  0  0  0  0  0  0
    5.9956    0.5382    0.0000 H   0  0  0  0  0  0  0  0  0  0  0  0
    5.1860    2.1284    0.0000 H   0  0  0  0  0  0  0  0  0  0  0  0
    3.7108    2.0517    0.0000 H   0  0  0  0  0  0  0  0  0  0  0  0
    3.5454    3.4387    0.0000 H   0  0  0  0  0  0  0  0  0  0  0  0
    2.5596    4.2678    0.0000 H   0  0  0  0  0  0  0  0  0  0  0  0
    0.7642    6.6275    0.0000 H   0  0  0  0  0  0  0  0  0  0  0  0
   -0.2661    5.3594    0.0000 H   0  0  0  0  0  0  0  0  0  0  0  0
    3.9502    3.6108    0.0000 H   0  0  0  0  0  0  0  0  0  0  0  0
    6.4182    5.0105    0.0000 H   0  0  0  0  0  0  0  0  0  0  0  0
    6.5824    9.5075    0.0000 H   0  0  0  0  0  0  0  0  0  0  0  0
    3.9861    9.6023    0.0000 H   0  0  0  0  0  0  0  0  0  0  0  0
    1.3350    8.1982    0.0000 H   0  0  0  0  0  0  0  0  0  0  0  0
   -1.4536    6.0949    0.0000 H   0  0  0  0  0  0  0  0  0  0  0  0
   -2.7165    5.8411    0.0000 H   0  0  0  0  0  0  0  0  0  0  0  0
   -5.6807    5.9087    0.0000 H   0  0  0  0  0  0  0  0  0  0  0  0
   -5.3317    4.3125    0.0000 H   0  0  0  0  0  0  0  0  0  0  0  0
   -1.2499    6.9417    0.0000 H   0  0  0  0  0  0  0  0  0  0  0  0
   -1.7445   10.0125    0.0000 H   0  0  0  0  0  0  0  0  0  0  0  0
   -4.3702   11.8580    0.0000 H   0  0  0  0  0  0  0  0  0  0  0  0
   -7.3694   11.7880    0.0000 H   0  0  0  0  0  0  0  0  0  0  0  0
   -8.8084    9.1557    0.0000 H   0  0  0  0  0  0  0  0  0  0  0  0
   -7.2482    6.5933    0.0000 H   0  0  0  0  0  0  0  0  0  0  0  0
   -6.7715    3.7081    0.0000 H   0  0  0  0  0  0  0  0  0  0  0  0
   -7.0800    2.7929    0.0000 H   0  0  0  0  0  0  0  0  0  0  0  0
   -9.0340    0.2702    0.0000 H   0  0  0  0  0  0  0  0  0  0  0  0
   -7.6716   -0.3007    0.0000 H   0  0  0  0  0  0  0  0  0  0  0  0
   -9.1845    3.7819    0.0000 H   0  0  0  0  0  0  0  0  0  0  0  0
   -7.6419    3.2437    0.0000 H   0  0  0  0  0  0  0  0  0  0  0  0
  -11.4870    1.1261    0.0000 H   0  0  0  0  0  0  0  0  0  0  0  0
   -9.9444    0.5879    0.0000 H   0  0  0  0  0  0  0  0  0  0  0  0
  -11.8125    4.5835    0.0000 H   0  0  0  0  0  0  0  0  0  0  0  0
  -10.0949    4.0996    0.0000 H   0  0  0  0  0  0  0  0  0  0  0  0
  -13.7337    4.0368    0.0000 H   0  0  0  0  0  0  0  0  0  0  0  0
  -14.0432    2.1335    0.0000 H   0  0  0  0  0  0  0  0  0  0  0  0
  -12.3974    1.4438    0.0000 H   0  0  0  0  0  0  0  0  0  0  0  0
   -8.0967   -1.8032    0.0000 H   0  0  0  0  0  0  0  0  0  0  0  0
   -5.4547   -5.5465    0.0000 H   0  0  0  0  0  0  0  0  0  0  0  0
   -6.5061   -4.7679    0.0000 H   0  0  0  0  0  0  0  0  0  0  0  0
   -3.9613   -6.4316    0.0000 H   0  0  0  0  0  0  0  0  0  0  0  0
   -5.0126   -5.9880    0.0000 H   0  0  0  0  0  0  0  0  0  0  0  0
   -1.9184   -6.7647    0.0000 H   0  0  0  0  0  0  0  0  0  0  0  0
   -3.3818   -6.6177    0.0000 H   0  0  0  0  0  0  0  0  0  0  0  0
   -0.8132   -6.8935    0.0000 H   0  0  0  0  0  0  0  0  0  0  0  0
   -8.7022   -3.8097    0.0000 H   0  0  0  0  0  0  0  0  0  0  0  0
   -8.8880   -2.0350    0.0000 H   0  0  0  0  0  0  0  0  0  0  0  0
   -7.6085   -1.2969    0.0000 H   0  0  0  0  0  0  0  0  0  0  0  0
   -9.2453   -3.1106    0.0000 H   0  0  0  0  0  0  0  0  0  0  0  0
   -7.5689   -6.0586    0.0000 H   0  0  0  0  0  0  0  0  0  0  0  0
   -8.7076   -8.5026    0.0000 H   0  0  0  0  0  0  0  0  0  0  0  0
   -7.7019   -7.0286    0.0000 H   0  0  0  0  0  0  0  0  0  0  0  0
  -11.4110   -6.3975    0.0000 H   0  0  0  0  0  0  0  0  0  0  0  0
  -12.1029   -9.8704    0.0000 H   0  0  0  0  0  0  0  0  0  0  0  0
  -10.4766  -10.6049    0.0000 H   0  0  0  0  0  0  0  0  0  0  0  0
   -9.2987   -9.2644    0.0000 H   0  0  0  0  0  0  0  0  0  0  0  0
  -12.9448   -8.9417    0.0000 H   0  0  0  0  0  0  0  0  0  0  0  0
  -13.5167   -7.2513    0.0000 H   0  0  0  0  0  0  0  0  0  0  0  0
  -11.8848   -6.2239    0.0000 H   0  0  0  0  0  0  0  0  0  0  0  0
  1  2  1  0
  2  3  1  0
  3  4  1  0
  4  5  2  0
  4  6  1  0
  6  7  1  0
  7  8  1  0
  8  9  1  0
  9 10  2  0
 10 11  1  0
 11 12  2  0
 12 13  1  0
 13 14  2  0
  7 15  1  0
 15 16  2  0
 15 17  1  0
 17 18  1  0
 18 19  1  0
 19 20  1  0
 20 21  1  0
 21 22  1  0
 18 23  1  0
 23 24  2  0
 23 25  1  0
 26 25  1  1
 26 27  1  0
 27 28  1  0
 28 29  1  0
 29 30  1  0
 26 31  1  0
 26 32  1  0
 32 33  2  0
 32 34  1  0
 34 35  1  0
 35 36  1  0
 36 37  1  0
 37 38  2  0
 38 39  1  0
 39 40  2  0
 40 41  1  0
 40 42  1  0
 42 43  2  0
 35 44  1  0
 44 45  2  0
 44 46  1  0
 46 47  1  0
 47 48  1  0
 48 49  1  0
 49 50  2  0
 50 51  1  0
 51 52  1  0
 52 53  2  0
 53 54  1  0
 54 55  2  0
 55 56  1  0
 56 57  2  0
 47 58  1  0
 58 59  2  0
 58 60  1  0
 60 61  1  0
 61 62  1  0
 62 63  1  0
 63 64  1  0
 64 65  1  0
 65 66  1  0
 61 67  1  0
 67 68  2  0
 67 69  1  0
 69 70  1  0
 70 71  1  0
 71 72  1  0
 72 73  1  0
 73 74  1  0
 70 75  1  0
 70 76  1  1
 76 77  2  0
 76 78  1  0
 78 79  1  0
 79 80  1  0
 80 81  1  0
 81 82  1  0
 81 83  1  0
 79 84  1  0
 84 85  2  0
 84 86  1  0
 14  9  1  0
 43 37  1  0
 57 49  1  0
 57 52  1  0
 30 74  2  0
  1 87  1  0
  1 88  1  0
  2 89  1  0
  2 90  1  0
  3 91  1  0
  3 92  1  0
  6 93  1  0
  7 94  1  6
  8 95  1  0
  8 96  1  0
 10 97  1  0
 11 98  1  0
 12 99  1  0
 13100  1  0
 14101  1  0
 17102  1  0
 18103  1  6
 19104  1  0
 19105  1  0
 20106  1  0
 20107  1  0
 22108  1  0
 22109  1  0
 22110  1  0
 25111  1  0
 27112  1  0
 27113  1  0
 28114  1  0
 28115  1  0
 29116  1  0
 29117  1  0
 30118  1  0
 31119  1  0
 31120  1  0
 31121  1  0
 34122  1  0
 35123  1  6
 36124  1  0
 36125  1  0
 38126  1  0
 39127  1  0
 41128  1  0
 42129  1  0
 43130  1  0
 46131  1  0
 47132  1  6
 48133  1  0
 48134  1  0
 50135  1  0
 51136  1  0
 53137  1  0
 54138  1  0
 55139  1  0
 56140  1  0
 60141  1  0
 61142  1  6
 62143  1  0
 62144  1  0
 63145  1  0
 63146  1  0
 64147  1  0
 64148  1  0
 65149  1  0
 65150  1  0
 66151  1  0
 66152  1  0
 66153  1  0
 69154  1  0
 71155  1  0
 71156  1  0
 72157  1  0
 72158  1  0
 73159  1  0
 73160  1  0
 74161  1  0
 75162  1  0
 75163  1  0
 75164  1  0
 78165  1  0
 79166  1  1
 80167  1  0
 80168  1  0
 81169  1  0
 82170  1  0
 82171  1  0
 82172  1  0
 83173  1  0
 83174  1  0
 83175  1  0
M  CHG  2  66   1  86  -1
M  END
