
     RDKit          2D

319325  0  0  0  0  0  0  0  0999 V2000
  -26.0725   -3.5465    0.0000 C   0  0  0  0  0  0  0  0  0  0  0  0
  -26.8306   -4.8408    0.0000 N   0  0  0  0  0  0  0  0  0  0  0  0
  -28.3306   -4.8314    0.0000 C   0  0  0  0  0  0  0  0  0  0  0  0
  -29.0724   -3.5276    0.0000 C   0  0  0  0  0  0  0  0  0  0  0  0
  -30.5724   -3.5182    0.0000 C   0  0  0  0  0  0  0  0  0  0  0  0
  -31.3306   -4.8125    0.0000 C   0  0  0  0  0  0  0  0  0  0  0  0
  -30.5887   -6.1162    0.0000 C   0  0  0  0  0  0  0  0  0  0  0  0
  -29.0888   -6.1257    0.0000 C   0  0  0  0  0  0  0  0  0  0  0  0
  -31.5994   -7.2246    0.0000 C   0  0  0  0  0  0  0  0  0  0  0  0
  -32.9659   -6.6059    0.0000 O   0  0  0  0  0  0  0  0  0  0  0  0
  -32.7997   -5.1151    0.0000 C   0  0  0  0  0  0  0  0  0  0  0  0
  -33.9081   -4.1044    0.0000 O   0  0  0  0  0  0  0  0  0  0  0  0
  -32.7205   -8.2212    0.0000 C   0  0  0  0  0  0  0  0  0  0  0  0
  -32.4178   -9.6904    0.0000 C   0  0  0  0  0  0  0  0  0  0  0  0
  -33.5388  -10.6871    0.0000 C   0  0  0  0  0  0  0  0  0  0  0  0
  -34.9625  -10.2146    0.0000 C   0  0  0  0  0  0  0  0  0  0  0  0
  -35.2651   -8.7454    0.0000 C   0  0  0  0  0  0  0  0  0  0  0  0
  -34.1441   -7.7487    0.0000 C   0  0  0  0  0  0  0  0  0  0  0  0
  -36.0835  -11.2112    0.0000 O   0  0  0  0  0  0  0  0  0  0  0  0
  -30.9942  -10.1629    0.0000 O   0  0  0  0  0  0  0  0  0  0  0  0
  -29.8732   -9.1662    0.0000 C   0  0  0  0  0  0  0  0  0  0  0  0
  -30.1758   -7.6971    0.0000 C   0  0  0  0  0  0  0  0  0  0  0  0
  -28.9136   -7.3860    0.0000 C   0  0  0  0  0  0  0  0  0  0  0  0
  -28.1543   -7.6380    0.0000 C   0  0  0  0  0  0  0  0  0  0  0  0
  -27.9929   -8.4216    0.0000 C   0  0  0  0  0  0  0  0  0  0  0  0
  -28.5908   -8.9531    0.0000 C   0  0  0  0  0  0  0  0  0  0  0  0
  -25.9049   -9.1146    0.0000 O   0  0  0  0  0  0  0  0  0  0  0  0
  -26.8143   -2.2428    0.0000 S   0  0  0  0  0  0  0  0  0  0  0  0
  -24.5725   -3.5560    0.0000 N   0  0  0  0  0  0  0  0  0  0  0  0
  -23.8143   -2.2617    0.0000 C   0  0  0  0  0  0  0  0  0  0  0  0
  -22.3144   -2.2711    0.0000 C   0  0  0  0  0  0  0  0  0  0  0  0
  -21.5562   -0.9768    0.0000 C   0  0  0  0  0  0  0  0  0  0  0  0
  -22.2980    0.3269    0.0000 O   0  0  0  0  0  0  0  0  0  0  0  0
  -20.0562   -0.9863    0.0000 N   0  0  0  0  0  0  0  0  0  0  0  0
  -19.2981    0.3080    0.0000 C   0  0  0  0  0  0  0  0  0  0  0  0
  -19.0283    1.7836    0.0000 C   0  0  0  0  0  0  0  0  0  0  0  0
  -17.6156    2.2877    0.0000 C   0  0  0  0  0  0  0  0  0  0  0  0
  -17.3458    3.7633    0.0000 C   0  0  0  0  0  0  0  0  0  0  0  0
  -15.9331    4.2674    0.0000 N   0  0  0  0  0  0  0  0  0  0  0  0
  -15.6633    5.7430    0.0000 C   0  0  0  0  0  0  0  0  0  0  0  0
  -14.2506    6.2471    0.0000 N   0  0  0  0  0  0  0  0  0  0  0  0
  -16.8063    6.7144    0.0000 N   0  0  0  0  0  0  0  0  0  0  0  0
  -17.7981    0.2986    0.0000 C   0  0  0  0  0  0  0  0  0  0  0  0
  -17.0563   -1.0051    0.0000 O   0  0  0  0  0  0  0  0  0  0  0  0
  -17.0399    1.5929    0.0000 N   0  0  0  0  0  0  0  0  0  0  0  0
  -15.5400    1.5834    0.0000 C   0  0  0  0  0  0  0  0  0  0  0  0
  -14.1337    1.0616    0.0000 C   0  0  0  0  0  0  0  0  0  0  0  0
  -13.8825   -0.4173    0.0000 C   0  0  0  0  0  0  0  0  0  0  0  0
  -12.4762   -0.9392    0.0000 C   0  0  0  0  0  0  0  0  0  0  0  0
  -12.2251   -2.4180    0.0000 N   0  0  0  0  0  0  0  0  0  0  0  0
  -10.8188   -2.9399    0.0000 C   0  0  0  0  0  0  0  0  0  0  0  0
  -10.5676   -4.4187    0.0000 N   0  0  0  0  0  0  0  0  0  0  0  0
   -9.6637   -1.9829    0.0000 N   0  0  0  0  0  0  0  0  0  0  0  0
  -14.7818    2.8777    0.0000 C   0  0  0  0  0  0  0  0  0  0  0  0
  -15.0765    3.9308    0.0000 O   0  0  0  0  0  0  0  0  0  0  0  0
  -13.2818    2.8683    0.0000 N   0  0  0  0  0  0  0  0  0  0  0  0
  -12.5237    4.1626    0.0000 C   0  0  0  0  0  0  0  0  0  0  0  0
  -11.0237    4.1531    0.0000 C   0  0  0  0  0  0  0  0  0  0  0  0
  -10.2819    2.8494    0.0000 O   0  0  0  0  0  0  0  0  0  0  0  0
  -10.2656    5.4474    0.0000 N   0  0  0  0  0  0  0  0  0  0  0  0
   -8.7656    5.4380    0.0000 C   0  0  0  0  0  0  0  0  0  0  0  0
   -7.3593    4.9161    0.0000 C   0  0  0  0  0  0  0  0  0  0  0  0
   -7.1081    3.4373    0.0000 O   0  0  0  0  0  0  0  0  0  0  0  0
   -8.0074    6.7323    0.0000 C   0  0  0  0  0  0  0  0  0  0  0  0
   -8.7492    8.0360    0.0000 O   0  0  0  0  0  0  0  0  0  0  0  0
   -6.5074    6.7228    0.0000 N   0  0  0  0  0  0  0  0  0  0  0  0
   -5.7493    8.0171    0.0000 C   0  0  0  0  0  0  0  0  0  0  0  0
   -5.4795    9.4927    0.0000 C   0  0  0  0  0  0  0  0  0  0  0  0
   -4.0668    9.9968    0.0000 C   0  0  0  0  0  0  0  0  0  0  0  0
   -3.7970   11.4724    0.0000 C   0  0  0  0  0  0  0  0  0  0  0  0
   -2.3843   11.9765    0.0000 N   0  0  0  0  0  0  0  0  0  0  0  0
   -2.1145   13.4521    0.0000 C   0  0  0  0  0  0  0  0  0  0  0  0
   -0.7018   13.9562    0.0000 N   0  0  0  0  0  0  0  0  0  0  0  0
   -3.2575   14.4234    0.0000 N   0  0  0  0  0  0  0  0  0  0  0  0
   -4.2493    8.0077    0.0000 C   0  0  0  0  0  0  0  0  0  0  0  0
   -3.5075    6.7040    0.0000 O   0  0  0  0  0  0  0  0  0  0  0  0
   -3.4912    9.3020    0.0000 N   0  0  0  0  0  0  0  0  0  0  0  0
   -4.0926   10.6761    0.0000 C   0  0  0  0  0  0  0  0  0  0  0  0
   -2.9716   11.6728    0.0000 C   0  0  0  0  0  0  0  0  0  0  0  0
   -1.6773   10.9146    0.0000 C   0  0  0  0  0  0  0  0  0  0  0  0
   -1.9984    9.4494    0.0000 C   0  0  0  0  0  0  0  0  0  0  0  0
   -0.5076    9.2832    0.0000 C   0  0  0  0  0  0  0  0  0  0  0  0
    0.5223   10.3737    0.0000 O   0  0  0  0  0  0  0  0  0  0  0  0
    0.0938    7.9091    0.0000 N   0  0  0  0  0  0  0  0  0  0  0  0
    1.5846    7.7429    0.0000 C   0  0  0  0  0  0  0  0  0  0  0  0
    3.0423    8.0966    0.0000 C   0  0  0  0  0  0  0  0  0  0  0  0
    4.3978    7.4542    0.0000 O   0  0  0  0  0  0  0  0  0  0  0  0
    2.1861    6.3688    0.0000 C   0  0  0  0  0  0  0  0  0  0  0  0
    1.2968    5.1608    0.0000 O   0  0  0  0  0  0  0  0  0  0  0  0
    3.6768    6.2026    0.0000 N   0  0  0  0  0  0  0  0  0  0  0  0
    4.2783    4.8284    0.0000 C   0  0  0  0  0  0  0  0  0  0  0  0
    5.7691    4.6623    0.0000 C   0  0  0  0  0  0  0  0  0  0  0  0
    6.6584    5.8702    0.0000 O   0  0  0  0  0  0  0  0  0  0  0  0
    6.3705    3.2881    0.0000 N   0  0  0  0  0  0  0  0  0  0  0  0
    7.8613    3.1220    0.0000 C   0  0  0  0  0  0  0  0  0  0  0  0
    9.3190    3.4757    0.0000 C   0  0  0  0  0  0  0  0  0  0  0  0
    8.4628    1.7478    0.0000 C   0  0  0  0  0  0  0  0  0  0  0  0
    7.4328    0.6573    0.0000 O   0  0  0  0  0  0  0  0  0  0  0  0
    9.9535    1.5816    0.0000 N   0  0  0  0  0  0  0  0  0  0  0  0
   10.5550    0.2075    0.0000 C   0  0  0  0  0  0  0  0  0  0  0  0
    9.9227   -1.1527    0.0000 C   0  0  0  0  0  0  0  0  0  0  0  0
    9.7194   -2.6389    0.0000 C   0  0  0  0  0  0  0  0  0  0  0  0
    9.9632   -4.1189    0.0000 C   0  0  0  0  0  0  0  0  0  0  0  0
   10.6324   -5.4614    0.0000 C   0  0  0  0  0  0  0  0  0  0  0  0
    9.0683    0.4071    0.0000 C   0  0  0  0  0  0  0  0  0  0  0  0
   11.5601    1.3209    0.0000 C   0  0  0  0  0  0  0  0  0  0  0  0
   10.9179    2.6765    0.0000 O   0  0  0  0  0  0  0  0  0  0  0  0
   12.8488    2.0886    0.0000 N   0  0  0  0  0  0  0  0  0  0  0  0
   14.3065    2.4423    0.0000 C   0  0  0  0  0  0  0  0  0  0  0  0
   15.0058    3.7693    0.0000 C   0  0  0  0  0  0  0  0  0  0  0  0
   14.2063    5.0384    0.0000 C   0  0  0  0  0  0  0  0  0  0  0  0
   14.9056    6.3654    0.0000 C   0  0  0  0  0  0  0  0  0  0  0  0
   14.1061    7.6346    0.0000 N   0  0  0  0  0  0  0  0  0  0  0  0
   14.8054    8.9616    0.0000 C   0  0  0  0  0  0  0  0  0  0  0  0
   14.0059   10.2307    0.0000 N   0  0  0  0  0  0  0  0  0  0  0  0
   16.3043    9.0194    0.0000 N   0  0  0  0  0  0  0  0  0  0  0  0
   15.8037    2.3506    0.0000 C   0  0  0  0  0  0  0  0  0  0  0  0
   16.1175    3.8174    0.0000 O   0  0  0  0  0  0  0  0  0  0  0  0
   17.2074    1.8217    0.0000 N   0  0  0  0  0  0  0  0  0  0  0  0
   18.3928    0.9026    0.0000 C   0  0  0  0  0  0  0  0  0  0  0  0
   19.8663    1.1832    0.0000 C   0  0  0  0  0  0  0  0  0  0  0  0
   20.3600    2.5996    0.0000 C   0  0  0  0  0  0  0  0  0  0  0  0
   21.8336    2.8802    0.0000 C   0  0  0  0  0  0  0  0  0  0  0  0
   22.3273    4.2966    0.0000 N   0  0  0  0  0  0  0  0  0  0  0  0
   23.8008    4.5773    0.0000 C   0  0  0  0  0  0  0  0  0  0  0  0
   24.2946    5.9937    0.0000 N   0  0  0  0  0  0  0  0  0  0  0  0
   24.7806    3.4415    0.0000 N   0  0  0  0  0  0  0  0  0  0  0  0
   19.2546   -0.3251    0.0000 C   0  0  0  0  0  0  0  0  0  0  0  0
   20.5970    0.3441    0.0000 O   0  0  0  0  0  0  0  0  0  0  0  0
   19.7163   -1.7523    0.0000 N   0  0  0  0  0  0  0  0  0  0  0  0
   19.7367   -3.2522    0.0000 C   0  0  0  0  0  0  0  0  0  0  0  0
   20.8749   -4.2293    0.0000 C   0  0  0  0  0  0  0  0  0  0  0  0
   22.2901   -3.7322    0.0000 C   0  0  0  0  0  0  0  0  0  0  0  0
   23.4282   -4.7092    0.0000 C   0  0  0  0  0  0  0  0  0  0  0  0
   24.8434   -4.2121    0.0000 N   0  0  0  0  0  0  0  0  0  0  0  0
   25.9816   -5.1892    0.0000 C   0  0  0  0  0  0  0  0  0  0  0  0
   27.3968   -4.6921    0.0000 N   0  0  0  0  0  0  0  0  0  0  0  0
   25.7044   -6.6634    0.0000 N   0  0  0  0  0  0  0  0  0  0  0  0
   19.3142   -4.6914    0.0000 C   0  0  0  0  0  0  0  0  0  0  0  0
   20.6744   -5.3237    0.0000 O   0  0  0  0  0  0  0  0  0  0  0  0
   18.4862   -5.9422    0.0000 N   0  0  0  0  0  0  0  0  0  0  0  0
   17.3264   -6.8934    0.0000 C   0  0  0  0  0  0  0  0  0  0  0  0
   15.9377   -7.4604    0.0000 C   0  0  0  0  0  0  0  0  0  0  0  0
   14.4435   -7.5929    0.0000 C   0  0  0  0  0  0  0  0  0  0  0  0
   12.9767   -7.2791    0.0000 C   0  0  0  0  0  0  0  0  0  0  0  0
   11.6676   -6.5469    0.0000 C   0  0  0  0  0  0  0  0  0  0  0  0
   18.6704   -7.5594    0.0000 C   0  0  0  0  0  0  0  0  0  0  0  0
   17.2720   -8.3924    0.0000 C   0  0  0  0  0  0  0  0  0  0  0  0
   16.1561   -9.3947    0.0000 O   0  0  0  0  0  0  0  0  0  0  0  0
   18.5431   -9.1889    0.0000 N   0  0  0  0  0  0  0  0  0  0  0  0
   18.4888  -10.6879    0.0000 C   0  0  0  0  0  0  0  0  0  0  0  0
   17.9250  -12.0780    0.0000 C   0  0  0  0  0  0  0  0  0  0  0  0
   16.4394  -12.2848    0.0000 C   0  0  0  0  0  0  0  0  0  0  0  0
   15.8756  -13.6748    0.0000 C   0  0  0  0  0  0  0  0  0  0  0  0
   14.3900  -13.8817    0.0000 N   0  0  0  0  0  0  0  0  0  0  0  0
   13.8262  -15.2717    0.0000 C   0  0  0  0  0  0  0  0  0  0  0  0
   12.3406  -15.4785    0.0000 N   0  0  0  0  0  0  0  0  0  0  0  0
   14.7482  -16.4549    0.0000 N   0  0  0  0  0  0  0  0  0  0  0  0
   19.7598  -11.4845    0.0000 C   0  0  0  0  0  0  0  0  0  0  0  0
   19.8886  -12.9789    0.0000 O   0  0  0  0  0  0  0  0  0  0  0  0
   21.0851  -10.7820    0.0000 O   0  0  0  0  0  0  0  0  0  0  0  0
  -25.9354   -6.0444    0.0000 H   0  0  0  0  0  0  0  0  0  0  0  0
  -28.3143   -2.2333    0.0000 H   0  0  0  0  0  0  0  0  0  0  0  0
  -31.3142   -2.2145    0.0000 H   0  0  0  0  0  0  0  0  0  0  0  0
  -28.0535   -7.2111    0.0000 H   0  0  0  0  0  0  0  0  0  0  0  0
  -33.2362  -12.1562    0.0000 H   0  0  0  0  0  0  0  0  0  0  0  0
  -36.6887   -8.2729    0.0000 H   0  0  0  0  0  0  0  0  0  0  0  0
  -34.4467   -6.2796    0.0000 H   0  0  0  0  0  0  0  0  0  0  0  0
  -37.5071  -10.7387    0.0000 H   0  0  0  0  0  0  0  0  0  0  0  0
  -29.3574   -5.2313    0.0000 H   0  0  0  0  0  0  0  0  0  0  0  0
  -26.3970   -6.3203    0.0000 H   0  0  0  0  0  0  0  0  0  0  0  0
  -28.1469  -11.1079    0.0000 H   0  0  0  0  0  0  0  0  0  0  0  0
  -25.6023  -10.5837    0.0000 H   0  0  0  0  0  0  0  0  0  0  0  0
  -23.8307   -4.8597    0.0000 H   0  0  0  0  0  0  0  0  0  0  0  0
  -23.5446   -0.7861    0.0000 H   0  0  0  0  0  0  0  0  0  0  0  0
  -25.2206   -1.7398    0.0000 H   0  0  0  0  0  0  0  0  0  0  0  0
  -20.9081   -2.7930    0.0000 H   0  0  0  0  0  0  0  0  0  0  0  0
  -22.5841   -3.7466    0.0000 H   0  0  0  0  0  0  0  0  0  0  0  0
  -19.3144   -2.2900    0.0000 H   0  0  0  0  0  0  0  0  0  0  0  0
  -20.7044    0.8299    0.0000 H   0  0  0  0  0  0  0  0  0  0  0  0
  -19.4579    3.2208    0.0000 H   0  0  0  0  0  0  0  0  0  0  0  0
  -20.5283    1.7930    0.0000 H   0  0  0  0  0  0  0  0  0  0  0  0
  -16.1156    2.2783    0.0000 H   0  0  0  0  0  0  0  0  0  0  0  0
  -16.6994    1.1000    0.0000 H   0  0  0  0  0  0  0  0  0  0  0  0
  -17.5970    5.2421    0.0000 H   0  0  0  0  0  0  0  0  0  0  0  0
  -18.8334    3.9555    0.0000 H   0  0  0  0  0  0  0  0  0  0  0  0
  -14.5890    3.6015    0.0000 H   0  0  0  0  0  0  0  0  0  0  0  0
  -13.9808    7.7226    0.0000 H   0  0  0  0  0  0  0  0  0  0  0  0
  -13.1076    5.2757    0.0000 H   0  0  0  0  0  0  0  0  0  0  0  0
  -16.5365    8.1899    0.0000 H   0  0  0  0  0  0  0  0  0  0  0  0
  -18.2190    6.2102    0.0000 H   0  0  0  0  0  0  0  0  0  0  0  0
  -17.4442    3.0374    0.0000 H   0  0  0  0  0  0  0  0  0  0  0  0
  -15.9876    0.1518    0.0000 H   0  0  0  0  0  0  0  0  0  0  0  0
  -12.6337    1.0521    0.0000 H   0  0  0  0  0  0  0  0  0  0  0  0
  -13.5149    2.4280    0.0000 H   0  0  0  0  0  0  0  0  0  0  0  0
  -14.1523   -1.8928    0.0000 H   0  0  0  0  0  0  0  0  0  0  0  0
  -15.3725   -0.5907    0.0000 H   0  0  0  0  0  0  0  0  0  0  0  0
  -10.9763   -0.9486    0.0000 H   0  0  0  0  0  0  0  0  0  0  0  0
  -12.0286    0.4925    0.0000 H   0  0  0  0  0  0  0  0  0  0  0  0
  -13.3802   -3.3749    0.0000 H   0  0  0  0  0  0  0  0  0  0  0  0
   -9.1613   -4.9406    0.0000 H   0  0  0  0  0  0  0  0  0  0  0  0
  -11.7227   -5.3756    0.0000 H   0  0  0  0  0  0  0  0  0  0  0  0
   -8.2574   -2.5048    0.0000 H   0  0  0  0  0  0  0  0  0  0  0  0
   -9.9149   -0.5041    0.0000 H   0  0  0  0  0  0  0  0  0  0  0  0
  -12.3867    1.6647    0.0000 H   0  0  0  0  0  0  0  0  0  0  0  0
  -12.2539    5.6381    0.0000 H   0  0  0  0  0  0  0  0  0  0  0  0
  -13.9300    4.6845    0.0000 H   0  0  0  0  0  0  0  0  0  0  0  0
  -11.0074    6.7512    0.0000 H   0  0  0  0  0  0  0  0  0  0  0  0
   -9.0353    3.9624    0.0000 H   0  0  0  0  0  0  0  0  0  0  0  0
   -5.8717    4.7239    0.0000 H   0  0  0  0  0  0  0  0  0  0  0  0
   -6.7405    6.2825    0.0000 H   0  0  0  0  0  0  0  0  0  0  0  0
   -5.7018    2.9154    0.0000 H   0  0  0  0  0  0  0  0  0  0  0  0
   -5.6123    5.5193    0.0000 H   0  0  0  0  0  0  0  0  0  0  0  0
   -7.1556    8.5390    0.0000 H   0  0  0  0  0  0  0  0  0  0  0  0
   -5.9091   10.9299    0.0000 H   0  0  0  0  0  0  0  0  0  0  0  0
   -6.9795    9.5021    0.0000 H   0  0  0  0  0  0  0  0  0  0  0  0
   -2.6091   10.3506    0.0000 H   0  0  0  0  0  0  0  0  0  0  0  0
   -3.1506    8.8091    0.0000 H   0  0  0  0  0  0  0  0  0  0  0  0
   -4.2266   12.9095    0.0000 H   0  0  0  0  0  0  0  0  0  0  0  0
   -5.2501   11.8445    0.0000 H   0  0  0  0  0  0  0  0  0  0  0  0
   -1.0402   11.3106    0.0000 H   0  0  0  0  0  0  0  0  0  0  0  0
   -0.4320   15.4317    0.0000 H   0  0  0  0  0  0  0  0  0  0  0  0
    0.4412   12.9848    0.0000 H   0  0  0  0  0  0  0  0  0  0  0  0
   -2.9877   15.8990    0.0000 H   0  0  0  0  0  0  0  0  0  0  0  0
   -4.6702   13.9193    0.0000 H   0  0  0  0  0  0  0  0  0  0  0  0
   -5.5371   10.2718    0.0000 H   0  0  0  0  0  0  0  0  0  0  0  0
   -5.1087   11.7795    0.0000 H   0  0  0  0  0  0  0  0  0  0  0  0
   -3.9485   12.8110    0.0000 H   0  0  0  0  0  0  0  0  0  0  0  0
   -2.4010   13.0600    0.0000 H   0  0  0  0  0  0  0  0  0  0  0  0
   -1.0586   12.2811    0.0000 H   0  0  0  0  0  0  0  0  0  0  0  0
   -0.2067   10.6192    0.0000 H   0  0  0  0  0  0  0  0  0  0  0  0
   -2.0079    7.9494    0.0000 H   0  0  0  0  0  0  0  0  0  0  0  0
   -0.7955    6.7011    0.0000 H   0  0  0  0  0  0  0  0  0  0  0  0
    1.4894    9.2399    0.0000 H   0  0  0  0  0  0  0  0  0  0  0  0
    4.2911    8.9275    0.0000 H   0  0  0  0  0  0  0  0  0  0  0  0
    2.4408    9.4707    0.0000 H   0  0  0  0  0  0  0  0  0  0  0  0
    5.5352    7.3648    0.0000 H   0  0  0  0  0  0  0  0  0  0  0  0
    4.7067    7.2931    0.0000 H   0  0  0  0  0  0  0  0  0  0  0  0
    4.3735    3.3315    0.0000 H   0  0  0  0  0  0  0  0  0  0  0  0
    2.8206    4.4747    0.0000 H   0  0  0  0  0  0  0  0  0  0  0  0
    5.4812    2.0802    0.0000 H   0  0  0  0  0  0  0  0  0  0  0  0
    7.7661    4.6189    0.0000 H   0  0  0  0  0  0  0  0  0  0  0  0
   10.7427    3.0033    0.0000 H   0  0  0  0  0  0  0  0  0  0  0  0
   10.5678    4.3066    0.0000 H   0  0  0  0  0  0  0  0  0  0  0  0
    8.7175    4.8498    0.0000 H   0  0  0  0  0  0  0  0  0  0  0  0
   10.8428    2.7896    0.0000 H   0  0  0  0  0  0  0  0  0  0  0  0
    8.8117   -0.1448    0.0000 H   0  0  0  0  0  0  0  0  0  0  0  0
    8.4844   -1.5786    0.0000 H   0  0  0  0  0  0  0  0  0  0  0  0
    8.2934   -2.1735    0.0000 H   0  0  0  0  0  0  0  0  0  0  0  0
    8.3786   -3.3114    0.0000 H   0  0  0  0  0  0  0  0  0  0  0  0
    8.4775   -3.9120    0.0000 H   0  0  0  0  0  0  0  0  0  0  0  0
    9.0148   -5.2810    0.0000 H   0  0  0  0  0  0  0  0  0  0  0  0
    9.4047   -6.3232    0.0000 H   0  0  0  0  0  0  0  0  0  0  0  0
    7.9571   -0.8341    0.0000 H   0  0  0  0  0  0  0  0  0  0  0  0
    7.6198    0.5780    0.0000 H   0  0  0  0  0  0  0  0  0  0  0  0
    9.0119    1.7241    0.0000 H   0  0  0  0  0  0  0  0  0  0  0  0
   12.2818    3.4773    0.0000 H   0  0  0  0  0  0  0  0  0  0  0  0
   13.2472    3.5043    0.0000 H   0  0  0  0  0  0  0  0  0  0  0  0
   16.2314    4.6341    0.0000 H   0  0  0  0  0  0  0  0  0  0  0  0
   16.3784    3.1643    0.0000 H   0  0  0  0  0  0  0  0  0  0  0  0
   13.0209    5.9576    0.0000 H   0  0  0  0  0  0  0  0  0  0  0  0
   12.9807    4.1736    0.0000 H   0  0  0  0  0  0  0  0  0  0  0  0
   16.0166    7.3732    0.0000 H   0  0  0  0  0  0  0  0  0  0  0  0
   16.1942    5.5976    0.0000 H   0  0  0  0  0  0  0  0  0  0  0  0
   12.6072    7.5767    0.0000 H   0  0  0  0  0  0  0  0  0  0  0  0
   14.7052   11.5577    0.0000 H   0  0  0  0  0  0  0  0  0  0  0  0
   12.5070   10.1729    0.0000 H   0  0  0  0  0  0  0  0  0  0  0  0
   17.0036   10.3464    0.0000 H   0  0  0  0  0  0  0  0  0  0  0  0
   17.1038    7.7503    0.0000 H   0  0  0  0  0  0  0  0  0  0  0  0
   17.9396    3.1309    0.0000 H   0  0  0  0  0  0  0  0  0  0  0  0
   18.5626    2.3929    0.0000 H   0  0  0  0  0  0  0  0  0  0  0  0
   21.3066    0.7642    0.0000 H   0  0  0  0  0  0  0  0  0  0  0  0
   20.2491   -0.2671    0.0000 H   0  0  0  0  0  0  0  0  0  0  0  0
   20.3396    4.0995    0.0000 H   0  0  0  0  0  0  0  0  0  0  0  0
   18.9197    3.0186    0.0000 H   0  0  0  0  0  0  0  0  0  0  0  0
   23.3142    2.6399    0.0000 H   0  0  0  0  0  0  0  0  0  0  0  0
   22.0367    1.3940    0.0000 H   0  0  0  0  0  0  0  0  0  0  0  0
   21.3475    5.4324    0.0000 H   0  0  0  0  0  0  0  0  0  0  0  0
   25.7681    6.2743    0.0000 H   0  0  0  0  0  0  0  0  0  0  0  0
   23.3148    7.1295    0.0000 H   0  0  0  0  0  0  0  0  0  0  0  0
   26.2541    3.7221    0.0000 H   0  0  0  0  0  0  0  0  0  0  0  0
   24.2869    2.0250    0.0000 H   0  0  0  0  0  0  0  0  0  0  0  0
   21.1963   -1.5085    0.0000 H   0  0  0  0  0  0  0  0  0  0  0  0
   21.0078   -2.4557    0.0000 H   0  0  0  0  0  0  0  0  0  0  0  0
   21.4453   -5.6165    0.0000 H   0  0  0  0  0  0  0  0  0  0  0  0
   19.9796   -5.4328    0.0000 H   0  0  0  0  0  0  0  0  0  0  0  0
   23.4500   -2.7810    0.0000 H   0  0  0  0  0  0  0  0  0  0  0  0
   21.7196   -2.3449    0.0000 H   0  0  0  0  0  0  0  0  0  0  0  0
   24.1635   -6.0167    0.0000 H   0  0  0  0  0  0  0  0  0  0  0  0
   22.3929   -5.7947    0.0000 H   0  0  0  0  0  0  0  0  0  0  0  0
   25.1206   -2.7380    0.0000 H   0  0  0  0  0  0  0  0  0  0  0  0
   28.5349   -5.6692    0.0000 H   0  0  0  0  0  0  0  0  0  0  0  0
   27.6739   -3.2179    0.0000 H   0  0  0  0  0  0  0  0  0  0  0  0
   26.8426   -7.6405    0.0000 H   0  0  0  0  0  0  0  0  0  0  0  0
   24.2892   -7.1605    0.0000 H   0  0  0  0  0  0  0  0  0  0  0  0
   19.5996   -6.9474    0.0000 H   0  0  0  0  0  0  0  0  0  0  0  0
   15.4439   -8.8768    0.0000 H   0  0  0  0  0  0  0  0  0  0  0  0
   16.7435   -8.7256    0.0000 H   0  0  0  0  0  0  0  0  0  0  0  0
   13.7081   -8.9002    0.0000 H   0  0  0  0  0  0  0  0  0  0  0  0
   14.8406   -9.0394    0.0000 H   0  0  0  0  0  0  0  0  0  0  0  0
   11.7709   -8.1713    0.0000 H   0  0  0  0  0  0  0  0  0  0  0  0
   13.1129   -8.7729    0.0000 H   0  0  0  0  0  0  0  0  0  0  0  0
   10.7484   -7.7323    0.0000 H   0  0  0  0  0  0  0  0  0  0  0  0
   19.1250   -8.9888    0.0000 H   0  0  0  0  0  0  0  0  0  0  0  0
   20.1703   -7.5426    0.0000 H   0  0  0  0  0  0  0  0  0  0  0  0
   19.4286   -6.2651    0.0000 H   0  0  0  0  0  0  0  0  0  0  0  0
   19.9442   -8.6532    0.0000 H   0  0  0  0  0  0  0  0  0  0  0  0
   17.0711  -10.1977    0.0000 H   0  0  0  0  0  0  0  0  0  0  0  0
   18.0539  -13.5724    0.0000 H   0  0  0  0  0  0  0  0  0  0  0  0
   19.3427  -12.5682    0.0000 H   0  0  0  0  0  0  0  0  0  0  0  0
   14.9726  -11.9710    0.0000 H   0  0  0  0  0  0  0  0  0  0  0  0
   16.3105  -10.7903    0.0000 H   0  0  0  0  0  0  0  0  0  0  0  0
   15.8213  -15.1739    0.0000 H   0  0  0  0  0  0  0  0  0  0  0  0
   17.2933  -14.1651    0.0000 H   0  0  0  0  0  0  0  0  0  0  0  0
   13.4680  -12.6984    0.0000 H   0  0  0  0  0  0  0  0  0  0  0  0
   11.7768  -16.8685    0.0000 H   0  0  0  0  0  0  0  0  0  0  0  0
   11.4186  -14.2953    0.0000 H   0  0  0  0  0  0  0  0  0  0  0  0
   14.1845  -17.8450    0.0000 H   0  0  0  0  0  0  0  0  0  0  0  0
   16.2339  -16.2481    0.0000 H   0  0  0  0  0  0  0  0  0  0  0  0
  1  2  1  0
  2  3  1  0
  3  4  2  0
  4  5  1  0
  5  6  2  0
  6  7  1  0
  7  8  2  0
  7  9  1  0
  9 10  1  0
 10 11  1  0
 11 12  2  0
  9 13  1  0
 13 14  1  0
 14 15  2  0
 15 16  1  0
 16 17  2  0
 17 18  1  0
 16 19  1  0
 14 20  1  0
 20 21  1  0
 21 22  2  0
 22 23  1  0
 23 24  2  0
 24 25  1  0
 25 26  2  0
 25 27  1  0
  1 28  2  0
  1 29  1  0
 29 30  1  0
 30 31  1  0
 31 32  1  0
 32 33  2  0
 32 34  1  0
 34 35  1  0
 35 36  1  0
 36 37  1  0
 37 38  1  0
 38 39  1  0
 39 40  1  0
 40 41  2  3
 40 42  1  0
 35 43  1  0
 43 44  2  0
 43 45  1  0
 45 46  1  0
 46 47  1  0
 47 48  1  0
 48 49  1  0
 49 50  1  0
 50 51  1  0
 51 52  2  3
 51 53  1  0
 46 54  1  0
 54 55  2  0
 54 56  1  0
 56 57  1  0
 57 58  1  0
 58 59  2  0
 58 60  1  0
 60 61  1  0
 61 62  1  0
 62 63  1  0
 61 64  1  0
 64 65  2  0
 64 66  1  0
 66 67  1  0
 67 68  1  0
 68 69  1  0
 69 70  1  0
 70 71  1  0
 71 72  1  0
 72 73  2  3
 72 74  1  0
 67 75  1  0
 75 76  2  0
 75 77  1  0
 77 78  1  0
 78 79  1  0
 79 80  1  0
 80 81  1  0
 81 82  1  0
 82 83  2  0
 82 84  1  0
 84 85  1  0
 85 86  1  0
 86 87  1  0
 85 88  1  0
 88 89  2  0
 88 90  1  0
 90 91  1  0
 91 92  1  0
 92 93  2  0
 92 94  1  0
 94 95  1  0
 95 96  1  0
 95 97  1  0
 97 98  2  0
 97 99  1  0
100 99  1  6
100101  1  0
101102  1  0
102103  1  0
103104  1  0
100105  1  0
100106  1  0
106107  2  0
106108  1  0
108109  1  0
109110  1  0
110111  1  0
111112  1  0
112113  1  0
113114  1  0
114115  2  3
114116  1  0
109117  1  0
117118  2  0
117119  1  0
119120  1  0
120121  1  0
121122  1  0
122123  1  0
123124  1  0
124125  1  0
125126  2  3
125127  1  0
120128  1  0
128129  2  0
128130  1  0
130131  1  0
131132  1  0
132133  1  0
133134  1  0
134135  1  0
135136  1  0
136137  2  3
136138  1  0
131139  1  0
139140  2  0
139141  1  0
141142  1  0
142143  1  0
143144  1  0
144145  1  0
145146  1  0
142147  1  0
142148  1  6
148149  2  0
148150  1  0
150151  1  0
151152  1  0
152153  1  0
153154  1  0
154155  1  0
155156  1  0
156157  2  3
156158  1  0
151159  1  0
159160  2  0
159161  1  0
  8  3  1  0
 81 77  1  0
 11  6  1  0
 18 13  2  0
104146  2  0
 22  9  1  0
 26 21  1  0
  2162  1  0
  4163  1  0
  5164  1  0
  8165  1  0
 15166  1  0
 17167  1  0
 18168  1  0
 19169  1  0
 23170  1  0
 24171  1  0
 26172  1  0
 27173  1  0
 29174  1  0
 30175  1  0
 30176  1  0
 31177  1  0
 31178  1  0
 34179  1  0
 35180  1  1
 36181  1  0
 36182  1  0
 37183  1  0
 37184  1  0
 38185  1  0
 38186  1  0
 39187  1  0
 41188  1  0
 41189  1  0
 42190  1  0
 42191  1  0
 45192  1  0
 46193  1  6
 47194  1  0
 47195  1  0
 48196  1  0
 48197  1  0
 49198  1  0
 49199  1  0
 50200  1  0
 52201  1  0
 52202  1  0
 53203  1  0
 53204  1  0
 56205  1  0
 57206  1  0
 57207  1  0
 60208  1  0
 61209  1  6
 62210  1  0
 62211  1  0
 63212  1  0
 66213  1  0
 67214  1  1
 68215  1  0
 68216  1  0
 69217  1  0
 69218  1  0
 70219  1  0
 70220  1  0
 71221  1  0
 73222  1  0
 73223  1  0
 74224  1  0
 74225  1  0
 78226  1  0
 78227  1  0
 79228  1  0
 79229  1  0
 80230  1  0
 80231  1  0
 81232  1  0
 84233  1  0
 85234  1  1
 86235  1  0
 86236  1  0
 87237  1  0
 90238  1  0
 91239  1  0
 91240  1  0
 94241  1  0
 95242  1  1
 96243  1  0
 96244  1  0
 96245  1  0
 99246  1  0
101247  1  0
101248  1  0
102249  1  0
102250  1  0
103251  1  0
103252  1  0
104253  1  0
105254  1  0
105255  1  0
105256  1  0
108257  1  0
109258  1  1
110259  1  0
110260  1  0
111261  1  0
111262  1  0
112263  1  0
112264  1  0
113265  1  0
115266  1  0
115267  1  0
116268  1  0
116269  1  0
119270  1  0
120271  1  1
121272  1  0
121273  1  0
122274  1  0
122275  1  0
123276  1  0
123277  1  0
124278  1  0
126279  1  0
126280  1  0
127281  1  0
127282  1  0
130283  1  0
131284  1  1
132285  1  0
132286  1  0
133287  1  0
133288  1  0
134289  1  0
134290  1  0
135291  1  0
137292  1  0
137293  1  0
138294  1  0
138295  1  0
141296  1  0
143297  1  0
143298  1  0
144299  1  0
144300  1  0
145301  1  0
145302  1  0
146303  1  0
147304  1  0
147305  1  0
147306  1  0
150307  1  0
151308  1  6
152309  1  0
152310  1  0
153311  1  0
153312  1  0
154313  1  0
154314  1  0
155315  1  0
157316  1  0
157317  1  0
158318  1  0
158319  1  0
M  CHG  8  41   1  52   1  73   1 115   1 126   1 137   1 157   1 161  -1
M  END
