
     RDKit          2D

397398  0  0  0  0  0  0  0  0999 V2000
   30.4618   -9.3277    0.0000 N   0  0  0  0  0  0  0  0  0  0  0  0
   29.7617   -8.0010    0.0000 C   0  0  0  0  0  0  0  0  0  0  0  0
   28.2628   -7.9439    0.0000 C   0  0  0  0  0  0  0  0  0  0  0  0
   27.5628   -6.6173    0.0000 C   0  0  0  0  0  0  0  0  0  0  0  0
   28.3304   -5.6755    0.0000 O   0  0  0  0  0  0  0  0  0  0  0  0
   26.0639   -6.5602    0.0000 N   0  0  0  0  0  0  0  0  0  0  0  0
   25.3639   -5.2336    0.0000 C   0  0  0  0  0  0  0  0  0  0  0  0
   26.7919   -4.7746    0.0000 C   0  0  0  0  0  0  0  0  0  0  0  0
   27.1084   -3.3083    0.0000 C   0  0  0  0  0  0  0  0  0  0  0  0
   28.5364   -2.8493    0.0000 C   0  0  0  0  0  0  0  0  0  0  0  0
   26.9043   -1.8223    0.0000 C   0  0  0  0  0  0  0  0  0  0  0  0
   24.2523   -4.2264    0.0000 C   0  0  0  0  0  0  0  0  0  0  0  0
   24.6959   -2.9513    0.0000 O   0  0  0  0  0  0  0  0  0  0  0  0
   22.8243   -4.6854    0.0000 N   0  0  0  0  0  0  0  0  0  0  0  0
   21.7127   -3.6782    0.0000 C   0  0  0  0  0  0  0  0  0  0  0  0
   21.7324   -2.1783    0.0000 C   0  0  0  0  0  0  0  0  0  0  0  0
   21.3092   -0.7393    0.0000 C   0  0  0  0  0  0  0  0  0  0  0  0
   20.4805    0.5111    0.0000 C   0  0  0  0  0  0  0  0  0  0  0  0
   19.3202    1.4616    0.0000 C   0  0  0  0  0  0  0  0  0  0  0  0
   23.1507   -3.2514    0.0000 C   0  0  0  0  0  0  0  0  0  0  0  0
   21.2518   -5.1056    0.0000 C   0  0  0  0  0  0  0  0  0  0  0  0
   22.1640   -5.7087    0.0000 O   0  0  0  0  0  0  0  0  0  0  0  0
   20.3906   -6.3338    0.0000 N   0  0  0  0  0  0  0  0  0  0  0  0
   19.2057   -7.2535    0.0000 C   0  0  0  0  0  0  0  0  0  0  0  0
   20.5314   -7.9553    0.0000 C   0  0  0  0  0  0  0  0  0  0  0  0
   20.4034   -9.4498    0.0000 C   0  0  0  0  0  0  0  0  0  0  0  0
   22.0172   -8.1614    0.0000 C   0  0  0  0  0  0  0  0  0  0  0  0
   22.5817   -9.5511    0.0000 C   0  0  0  0  0  0  0  0  0  0  0  0
   17.8023   -7.7832    0.0000 C   0  0  0  0  0  0  0  0  0  0  0  0
   18.1169   -9.2498    0.0000 O   0  0  0  0  0  0  0  0  0  0  0  0
   16.3052   -7.8756    0.0000 N   0  0  0  0  0  0  0  0  0  0  0  0
   14.8473   -7.5227    0.0000 C   0  0  0  0  0  0  0  0  0  0  0  0
   15.1252   -8.9967    0.0000 C   0  0  0  0  0  0  0  0  0  0  0  0
   13.9876   -9.9744    0.0000 C   0  0  0  0  0  0  0  0  0  0  0  0
   14.2655  -11.4484    0.0000 C   0  0  0  0  0  0  0  0  0  0  0  0
   12.5842  -10.5040    0.0000 C   0  0  0  0  0  0  0  0  0  0  0  0
   13.5582   -6.7557    0.0000 C   0  0  0  0  0  0  0  0  0  0  0  0
   12.7562   -8.0232    0.0000 O   0  0  0  0  0  0  0  0  0  0  0  0
   12.5525   -5.6428    0.0000 N   0  0  0  0  0  0  0  0  0  0  0  0
   11.9195   -4.2829    0.0000 C   0  0  0  0  0  0  0  0  0  0  0  0
   10.9403   -5.4192    0.0000 C   0  0  0  0  0  0  0  0  0  0  0  0
   11.4348   -6.8354    0.0000 C   0  0  0  0  0  0  0  0  0  0  0  0
   10.4556   -7.9717    0.0000 C   0  0  0  0  0  0  0  0  0  0  0  0
   10.9500   -9.3878    0.0000 N   0  0  0  0  0  0  0  0  0  0  0  0
    8.9819   -7.6918    0.0000 O   0  0  0  0  0  0  0  0  0  0  0  0
   11.7154   -2.7969    0.0000 C   0  0  0  0  0  0  0  0  0  0  0  0
   10.3819   -3.4838    0.0000 O   0  0  0  0  0  0  0  0  0  0  0  0
   11.9584   -1.3167    0.0000 N   0  0  0  0  0  0  0  0  0  0  0  0
   12.6269    0.0261    0.0000 C   0  0  0  0  0  0  0  0  0  0  0  0
   13.6615    1.1122    0.0000 C   0  0  0  0  0  0  0  0  0  0  0  0
   14.9703    1.8451    0.0000 C   0  0  0  0  0  0  0  0  0  0  0  0
   16.4370    2.1596    0.0000 C   0  0  0  0  0  0  0  0  0  0  0  0
   17.9312    2.0279    0.0000 C   0  0  0  0  0  0  0  0  0  0  0  0
   11.1662   -0.6115    0.0000 C   0  0  0  0  0  0  0  0  0  0  0  0
   10.0979   -1.4643    0.0000 C   0  0  0  0  0  0  0  0  0  0  0  0
    8.8875   -2.0995    0.0000 C   0  0  0  0  0  0  0  0  0  0  0  0
    7.5788   -2.4941    0.0000 C   0  0  0  0  0  0  0  0  0  0  0  0
   12.7286    1.6167    0.0000 C   0  0  0  0  0  0  0  0  0  0  0  0
   14.7364    0.7174    0.0000 O   0  0  0  0  0  0  0  0  0  0  0  0
   13.1663    2.9117    0.0000 N   0  0  0  0  0  0  0  0  0  0  0  0
   13.3510    4.2661    0.0000 C   0  0  0  0  0  0  0  0  0  0  0  0
   15.3559    4.9767    0.0000 C   0  0  0  0  0  0  0  0  0  0  0  0
   13.2760    5.6309    0.0000 C   0  0  0  0  0  0  0  0  0  0  0  0
   15.4129    6.1390    0.0000 O   0  0  0  0  0  0  0  0  0  0  0  0
   12.9441    6.9570    0.0000 N   0  0  0  0  0  0  0  0  0  0  0  0
   12.3672    8.1962    0.0000 C   0  0  0  0  0  0  0  0  0  0  0  0
   13.6697    9.8779    0.0000 C   0  0  0  0  0  0  0  0  0  0  0  0
   15.1685    9.9364    0.0000 C   0  0  0  0  0  0  0  0  0  0  0  0
   11.5663    9.3039    0.0000 C   0  0  0  0  0  0  0  0  0  0  0  0
   13.0893   10.8865    0.0000 O   0  0  0  0  0  0  0  0  0  0  0  0
   10.5702   10.2399    0.0000 N   0  0  0  0  0  0  0  0  0  0  0  0
    9.4149   10.9706    0.0000 C   0  0  0  0  0  0  0  0  0  0  0  0
    9.6014   13.0894    0.0000 C   0  0  0  0  0  0  0  0  0  0  0  0
   10.8307   13.9490    0.0000 C   0  0  0  0  0  0  0  0  0  0  0  0
   10.7009   15.4434    0.0000 C   0  0  0  0  0  0  0  0  0  0  0  0
   11.9302   16.3029    0.0000 N   0  0  0  0  0  0  0  0  0  0  0  0
    9.3419   16.0782    0.0000 O   0  0  0  0  0  0  0  0  0  0  0  0
    8.1422   11.4694    0.0000 C   0  0  0  0  0  0  0  0  0  0  0  0
    8.5678   13.6242    0.0000 O   0  0  0  0  0  0  0  0  0  0  0  0
    6.7982   11.7183    0.0000 N   0  0  0  0  0  0  0  0  0  0  0  0
    5.4313   11.7083    0.0000 C   0  0  0  0  0  0  0  0  0  0  0  0
    4.4426   13.5917    0.0000 C   0  0  0  0  0  0  0  0  0  0  0  0
    5.0120   14.9794    0.0000 C   0  0  0  0  0  0  0  0  0  0  0  0
    4.0910   11.4399    0.0000 C   0  0  0  0  0  0  0  0  0  0  0  0
    3.2840   13.4827    0.0000 O   0  0  0  0  0  0  0  0  0  0  0  0
    2.8257   10.9227    0.0000 N   0  0  0  0  0  0  0  0  0  0  0  0
    1.6812   10.1753    0.0000 C   0  0  0  0  0  0  0  0  0  0  0  0
   -0.1688   11.2251    0.0000 C   0  0  0  0  0  0  0  0  0  0  0  0
   -0.2581   12.7225    0.0000 C   0  0  0  0  0  0  0  0  0  0  0  0
   -1.6687   11.2142    0.0000 C   0  0  0  0  0  0  0  0  0  0  0  0
   -2.4282   12.5078    0.0000 C   0  0  0  0  0  0  0  0  0  0  0  0
    0.6988    9.2249    0.0000 C   0  0  0  0  0  0  0  0  0  0  0  0
   -0.9743   10.6534    0.0000 O   0  0  0  0  0  0  0  0  0  0  0  0
   -0.0860    8.1057    0.0000 N   0  0  0  0  0  0  0  0  0  0  0  0
   -0.6448    6.8582    0.0000 C   0  0  0  0  0  0  0  0  0  0  0  0
   -2.7687    6.7412    0.0000 C   0  0  0  0  0  0  0  0  0  0  0  0
   -3.7944    7.8357    0.0000 C   0  0  0  0  0  0  0  0  0  0  0  0
   -5.2551    7.4946    0.0000 C   0  0  0  0  0  0  0  0  0  0  0  0
   -4.3840    9.2149    0.0000 C   0  0  0  0  0  0  0  0  0  0  0  0
   -0.9574    5.5275    0.0000 C   0  0  0  0  0  0  0  0  0  0  0  0
   -3.1508    5.6420    0.0000 O   0  0  0  0  0  0  0  0  0  0  0  0
   -1.0125    4.1617    0.0000 N   0  0  0  0  0  0  0  0  0  0  0  0
   -0.8081    2.8101    0.0000 C   0  0  0  0  0  0  0  0  0  0  0  0
   -0.3517    1.5216    0.0000 C   0  0  0  0  0  0  0  0  0  0  0  0
    0.3404    0.3429    0.0000 C   0  0  0  0  0  0  0  0  0  0  0  0
    1.2430   -0.6837    0.0000 C   0  0  0  0  0  0  0  0  0  0  0  0
    2.3236   -1.5208    0.0000 C   0  0  0  0  0  0  0  0  0  0  0  0
    3.5431   -2.1383    0.0000 C   0  0  0  0  0  0  0  0  0  0  0  0
    4.8574   -2.5139    0.0000 C   0  0  0  0  0  0  0  0  0  0  0  0
    6.2190   -2.6339    0.0000 C   0  0  0  0  0  0  0  0  0  0  0  0
   -2.9157    3.0978    0.0000 C   0  0  0  0  0  0  0  0  0  0  0  0
   -2.5316    1.5635    0.0000 C   0  0  0  0  0  0  0  0  0  0  0  0
   -2.4827    0.0643    0.0000 O   0  0  0  0  0  0  0  0  0  0  0  0
   -3.9862    1.9296    0.0000 N   0  0  0  0  0  0  0  0  0  0  0  0
   -5.0306    0.8530    0.0000 C   0  0  0  0  0  0  0  0  0  0  0  0
   -5.6438   -0.5160    0.0000 C   0  0  0  0  0  0  0  0  0  0  0  0
   -7.1360   -0.6694    0.0000 C   0  0  0  0  0  0  0  0  0  0  0  0
   -7.7492   -2.0384    0.0000 C   0  0  0  0  0  0  0  0  0  0  0  0
   -8.5906   -0.3033    0.0000 C   0  0  0  0  0  0  0  0  0  0  0  0
   -6.4853    1.2191    0.0000 C   0  0  0  0  0  0  0  0  0  0  0  0
   -6.8955    2.6619    0.0000 O   0  0  0  0  0  0  0  0  0  0  0  0
   -7.5297    0.1425    0.0000 N   0  0  0  0  0  0  0  0  0  0  0  0
   -8.9843    0.5086    0.0000 C   0  0  0  0  0  0  0  0  0  0  0  0
  -10.2260    1.3502    0.0000 C   0  0  0  0  0  0  0  0  0  0  0  0
  -10.1180    2.8463    0.0000 C   0  0  0  0  0  0  0  0  0  0  0  0
  -11.3596    3.6879    0.0000 C   0  0  0  0  0  0  0  0  0  0  0  0
  -11.2516    5.1840    0.0000 O   0  0  0  0  0  0  0  0  0  0  0  0
  -12.7093    3.0334    0.0000 O   0  0  0  0  0  0  0  0  0  0  0  0
  -10.0287   -0.5681    0.0000 C   0  0  0  0  0  0  0  0  0  0  0  0
   -9.7974   -2.0501    0.0000 O   0  0  0  0  0  0  0  0  0  0  0  0
  -11.4833   -0.2019    0.0000 N   0  0  0  0  0  0  0  0  0  0  0  0
  -12.5278   -1.2786    0.0000 C   0  0  0  0  0  0  0  0  0  0  0  0
  -13.1409   -2.6475    0.0000 C   0  0  0  0  0  0  0  0  0  0  0  0
  -14.6331   -2.8009    0.0000 C   0  0  0  0  0  0  0  0  0  0  0  0
  -15.2463   -4.1699    0.0000 C   0  0  0  0  0  0  0  0  0  0  0  0
  -16.7086   -4.5041    0.0000 N   0  0  0  0  0  0  0  0  0  0  0  0
  -14.3673   -5.3854    0.0000 O   0  0  0  0  0  0  0  0  0  0  0  0
  -13.9824   -0.9124    0.0000 C   0  0  0  0  0  0  0  0  0  0  0  0
  -14.3926    0.5304    0.0000 O   0  0  0  0  0  0  0  0  0  0  0  0
  -15.0268   -1.9891    0.0000 N   0  0  0  0  0  0  0  0  0  0  0  0
  -16.4814   -1.6229    0.0000 C   0  0  0  0  0  0  0  0  0  0  0  0
  -17.7231   -0.7813    0.0000 C   0  0  0  0  0  0  0  0  0  0  0  0
  -17.6151    0.7148    0.0000 C   0  0  0  0  0  0  0  0  0  0  0  0
  -18.8567    1.5564    0.0000 C   0  0  0  0  0  0  0  0  0  0  0  0
  -18.7487    3.0525    0.0000 N   0  0  0  0  0  0  0  0  0  0  0  0
  -20.2064    0.9018    0.0000 O   0  0  0  0  0  0  0  0  0  0  0  0
  -17.5258   -2.6996    0.0000 C   0  0  0  0  0  0  0  0  0  0  0  0
  -17.3572   -3.7800    0.0000 O   0  0  0  0  0  0  0  0  0  0  0  0
  -18.9805   -2.3334    0.0000 N   0  0  0  0  0  0  0  0  0  0  0  0
  -20.0249   -3.4101    0.0000 C   0  0  0  0  0  0  0  0  0  0  0  0
  -20.6381   -4.7790    0.0000 C   0  0  0  0  0  0  0  0  0  0  0  0
  -22.1004   -5.1132    0.0000 C   0  0  0  0  0  0  0  0  0  0  0  0
  -21.4795   -3.0439    0.0000 C   0  0  0  0  0  0  0  0  0  0  0  0
  -21.8897   -1.6011    0.0000 O   0  0  0  0  0  0  0  0  0  0  0  0
  -22.5239   -4.1206    0.0000 N   0  0  0  0  0  0  0  0  0  0  0  0
  -23.9785   -3.7544    0.0000 C   0  0  0  0  0  0  0  0  0  0  0  0
  -25.2202   -2.9128    0.0000 C   0  0  0  0  0  0  0  0  0  0  0  0
  -25.1122   -1.4167    0.0000 C   0  0  0  0  0  0  0  0  0  0  0  0
  -26.3539   -0.5751    0.0000 C   0  0  0  0  0  0  0  0  0  0  0  0
  -26.2459    0.9210    0.0000 N   0  0  0  0  0  0  0  0  0  0  0  0
  -27.4875    1.7625    0.0000 C   0  0  0  0  0  0  0  0  0  0  0  0
  -27.3795    3.2587    0.0000 N   0  0  0  0  0  0  0  0  0  0  0  0
  -28.8372    1.1080    0.0000 N   0  0  0  0  0  0  0  0  0  0  0  0
  -25.0229   -4.8311    0.0000 C   0  0  0  0  0  0  0  0  0  0  0  0
  -24.6127   -6.2739    0.0000 O   0  0  0  0  0  0  0  0  0  0  0  0
  -26.4776   -4.4649    0.0000 N   0  0  0  0  0  0  0  0  0  0  0  0
  -27.5220   -5.5416    0.0000 C   0  0  0  0  0  0  0  0  0  0  0  0
  -28.1352   -6.9105    0.0000 C   0  0  0  0  0  0  0  0  0  0  0  0
  -29.6273   -7.0640    0.0000 C   0  0  0  0  0  0  0  0  0  0  0  0
  -30.2405   -8.4329    0.0000 C   0  0  0  0  0  0  0  0  0  0  0  0
  -31.4249   -8.7036    0.0000 O   0  0  0  0  0  0  0  0  0  0  0  0
  -29.3615   -9.6484    0.0000 O   0  0  0  0  0  0  0  0  0  0  0  0
  -28.9766   -5.1754    0.0000 C   0  0  0  0  0  0  0  0  0  0  0  0
  -29.3868   -3.7326    0.0000 O   0  0  0  0  0  0  0  0  0  0  0  0
  -30.0210   -6.2521    0.0000 N   0  0  0  0  0  0  0  0  0  0  0  0
  -31.4756   -5.8859    0.0000 C   0  0  0  0  0  0  0  0  0  0  0  0
  -32.7173   -5.0444    0.0000 C   0  0  0  0  0  0  0  0  0  0  0  0
  -32.6093   -3.5482    0.0000 C   0  0  0  0  0  0  0  0  0  0  0  0
  -33.8510   -2.7067    0.0000 C   0  0  0  0  0  0  0  0  0  0  0  0
  -33.7430   -1.2106    0.0000 N   0  0  0  0  0  0  0  0  0  0  0  0
  -34.9846   -0.3690    0.0000 C   0  0  0  0  0  0  0  0  0  0  0  0
  -34.8766    1.1271    0.0000 N   0  0  0  0  0  0  0  0  0  0  0  0
  -36.3343   -1.0235    0.0000 N   0  0  0  0  0  0  0  0  0  0  0  0
  -32.5200   -6.9626    0.0000 C   0  0  0  0  0  0  0  0  0  0  0  0
  -34.0085   -6.7765    0.0000 O   0  0  0  0  0  0  0  0  0  0  0  0
  -32.3327   -8.1631    0.0000 O   0  0  0  0  0  0  0  0  0  0  0  0
   31.9607   -9.3847    0.0000 H   0  0  0  0  0  0  0  0  0  0  0  0
   29.6629  -10.5972    0.0000 H   0  0  0  0  0  0  0  0  0  0  0  0
   31.1898   -7.5420    0.0000 H   0  0  0  0  0  0  0  0  0  0  0  0
   29.5577   -6.5150    0.0000 H   0  0  0  0  0  0  0  0  0  0  0  0
   28.4669   -9.4300    0.0000 H   0  0  0  0  0  0  0  0  0  0  0  0
   26.8348   -8.4030    0.0000 H   0  0  0  0  0  0  0  0  0  0  0  0
   25.2650   -7.8298    0.0000 H   0  0  0  0  0  0  0  0  0  0  0  0
   24.1789   -6.1533    0.0000 H   0  0  0  0  0  0  0  0  0  0  0  0
   28.0060   -4.8208    0.0000 H   0  0  0  0  0  0  0  0  0  0  0  0
   27.1984   -5.7897    0.0000 H   0  0  0  0  0  0  0  0  0  0  0  0
   25.6095   -3.2513    0.0000 H   0  0  0  0  0  0  0  0  0  0  0  0
   29.0293   -1.4326    0.0000 H   0  0  0  0  0  0  0  0  0  0  0  0
   30.0354   -2.9064    0.0000 H   0  0  0  0  0  0  0  0  0  0  0  0
   28.9201   -4.2994    0.0000 H   0  0  0  0  0  0  0  0  0  0  0  0
   27.9683   -0.7650    0.0000 H   0  0  0  0  0  0  0  0  0  0  0  0
   26.2043   -0.4956    0.0000 H   0  0  0  0  0  0  0  0  0  0  0  0
   25.6191   -2.2354    0.0000 H   0  0  0  0  0  0  0  0  0  0  0  0
   22.5935   -5.7543    0.0000 H   0  0  0  0  0  0  0  0  0  0  0  0
   22.8700   -1.2006    0.0000 H   0  0  0  0  0  0  0  0  0  0  0  0
   23.1587   -2.6428    0.0000 H   0  0  0  0  0  0  0  0  0  0  0  0
   22.2568    0.4234    0.0000 H   0  0  0  0  0  0  0  0  0  0  0  0
   22.8090   -0.7627    0.0000 H   0  0  0  0  0  0  0  0  0  0  0  0
   20.8697    1.9597    0.0000 H   0  0  0  0  0  0  0  0  0  0  0  0
   21.9206    0.9308    0.0000 H   0  0  0  0  0  0  0  0  0  0  0  0
   20.0871    2.7507    0.0000 H   0  0  0  0  0  0  0  0  0  0  0  0
   24.4344   -3.6727    0.0000 H   0  0  0  0  0  0  0  0  0  0  0  0
   24.0209   -1.9302    0.0000 H   0  0  0  0  0  0  0  0  0  0  0  0
   22.8284   -1.6039    0.0000 H   0  0  0  0  0  0  0  0  0  0  0  0
   21.5947   -7.2283    0.0000 H   0  0  0  0  0  0  0  0  0  0  0  0
   18.9295   -8.7279    0.0000 H   0  0  0  0  0  0  0  0  0  0  0  0
   21.3240   -6.6818    0.0000 H   0  0  0  0  0  0  0  0  0  0  0  0
   21.8149  -10.3347    0.0000 H   0  0  0  0  0  0  0  0  0  0  0  0
   20.1256  -10.8817    0.0000 H   0  0  0  0  0  0  0  0  0  0  0  0
   19.0867   -9.4309    0.0000 H   0  0  0  0  0  0  0  0  0  0  0  0
   23.4839   -7.8468    0.0000 H   0  0  0  0  0  0  0  0  0  0  0  0
   21.9621   -6.6624    0.0000 H   0  0  0  0  0  0  0  0  0  0  0  0
   24.0674   -9.7571    0.0000 H   0  0  0  0  0  0  0  0  0  0  0  0
   22.6367  -11.0501    0.0000 H   0  0  0  0  0  0  0  0  0  0  0  0
   21.2347  -10.2112    0.0000 H   0  0  0  0  0  0  0  0  0  0  0  0
   16.1735   -9.3698    0.0000 H   0  0  0  0  0  0  0  0  0  0  0  0
   13.5224   -8.2259    0.0000 H   0  0  0  0  0  0  0  0  0  0  0  0
   16.0420  -10.1839    0.0000 H   0  0  0  0  0  0  0  0  0  0  0  0
   16.6150   -8.8224    0.0000 H   0  0  0  0  0  0  0  0  0  0  0  0
   13.0707   -8.7872    0.0000 H   0  0  0  0  0  0  0  0  0  0  0  0
   13.2555  -12.5575    0.0000 H   0  0  0  0  0  0  0  0  0  0  0  0
   15.0307  -12.7385    0.0000 H   0  0  0  0  0  0  0  0  0  0  0  0
   15.7229  -11.0938    0.0000 H   0  0  0  0  0  0  0  0  0  0  0  0
   12.1626  -11.9435    0.0000 H   0  0  0  0  0  0  0  0  0  0  0  0
   11.0843  -10.5217    0.0000 H   0  0  0  0  0  0  0  0  0  0  0  0
   12.4881   -9.0071    0.0000 H   0  0  0  0  0  0  0  0  0  0  0  0
   11.5398   -6.7493    0.0000 H   0  0  0  0  0  0  0  0  0  0  0  0
   10.4399   -4.0362    0.0000 H   0  0  0  0  0  0  0  0  0  0  0  0
    9.6315   -6.1521    0.0000 H   0  0  0  0  0  0  0  0  0  0  0  0
    9.8567   -4.3819    0.0000 H   0  0  0  0  0  0  0  0  0  0  0  0
   12.2351   -8.1040    0.0000 H   0  0  0  0  0  0  0  0  0  0  0  0
   12.8820   -6.4410    0.0000 H   0  0  0  0  0  0  0  0  0  0  0  0
    9.9709  -10.5241    0.0000 H   0  0  0  0  0  0  0  0  0  0  0  0
   12.4468   -9.4860    0.0000 H   0  0  0  0  0  0  0  0  0  0  0  0
   10.5310   -0.8558    0.0000 H   0  0  0  0  0  0  0  0  0  0  0  0
   12.2460    1.6086    0.0000 H   0  0  0  0  0  0  0  0  0  0  0  0
   13.7149    2.6113    0.0000 H   0  0  0  0  0  0  0  0  0  0  0  0
   14.1637    3.1098    0.0000 H   0  0  0  0  0  0  0  0  0  0  0  0
   15.6322    3.1912    0.0000 H   0  0  0  0  0  0  0  0  0  0  0  0
   16.0390    3.6059    0.0000 H   0  0  0  0  0  0  0  0  0  0  0  0
   17.1716    3.4674    0.0000 H   0  0  0  0  0  0  0  0  0  0  0  0
   18.2841    3.4858    0.0000 H   0  0  0  0  0  0  0  0  0  0  0  0
   13.1075   -1.4808    0.0000 H   0  0  0  0  0  0  0  0  0  0  0  0
   11.7897   -2.6084    0.0000 H   0  0  0  0  0  0  0  0  0  0  0  0
   11.5218   -3.1302    0.0000 H   0  0  0  0  0  0  0  0  0  0  0  0
   10.1514   -3.5138    0.0000 H   0  0  0  0  0  0  0  0  0  0  0  0
   10.1175   -3.8956    0.0000 H   0  0  0  0  0  0  0  0  0  0  0  0
    8.9026   -4.2265    0.0000 H   0  0  0  0  0  0  0  0  0  0  0  0
    8.0108   -4.6513    0.0000 H   0  0  0  0  0  0  0  0  0  0  0  0
   15.3339    2.9548    0.0000 H   0  0  0  0  0  0  0  0  0  0  0  0
   15.3854    3.5539    0.0000 H   0  0  0  0  0  0  0  0  0  0  0  0
   15.5515    6.4638    0.0000 H   0  0  0  0  0  0  0  0  0  0  0  0
   16.8352    5.2244    0.0000 H   0  0  0  0  0  0  0  0  0  0  0  0
   16.3303    3.8363    0.0000 H   0  0  0  0  0  0  0  0  0  0  0  0
   15.0683    7.5155    0.0000 H   0  0  0  0  0  0  0  0  0  0  0  0
   14.4548    8.3314    0.0000 H   0  0  0  0  0  0  0  0  0  0  0  0
   14.0520   11.3283    0.0000 H   0  0  0  0  0  0  0  0  0  0  0  0
   12.3944   10.6676    0.0000 H   0  0  0  0  0  0  0  0  0  0  0  0
   15.8673   11.2637    0.0000 H   0  0  0  0  0  0  0  0  0  0  0  0
   16.5970    9.4787    0.0000 H   0  0  0  0  0  0  0  0  0  0  0  0
   15.3315    8.4453    0.0000 H   0  0  0  0  0  0  0  0  0  0  0  0
   12.0552   11.8583    0.0000 H   0  0  0  0  0  0  0  0  0  0  0  0
   11.0980   12.2129    0.0000 H   0  0  0  0  0  0  0  0  0  0  0  0
    9.1388   14.5163    0.0000 H   0  0  0  0  0  0  0  0  0  0  0  0
    8.1016   13.0643    0.0000 H   0  0  0  0  0  0  0  0  0  0  0  0
   12.2798   14.3363    0.0000 H   0  0  0  0  0  0  0  0  0  0  0  0
   11.7739   12.7827    0.0000 H   0  0  0  0  0  0  0  0  0  0  0  0
   11.8005   17.7973    0.0000 H   0  0  0  0  0  0  0  0  0  0  0  0
   13.2893   15.6681    0.0000 H   0  0  0  0  0  0  0  0  0  0  0  0
    7.1725   13.8826    0.0000 H   0  0  0  0  0  0  0  0  0  0  0  0
    6.1755   13.6634    0.0000 H   0  0  0  0  0  0  0  0  0  0  0  0
    3.2820   14.5420    0.0000 H   0  0  0  0  0  0  0  0  0  0  0  0
    3.1945   12.7597    0.0000 H   0  0  0  0  0  0  0  0  0  0  0  0
    4.0950   16.1664    0.0000 H   0  0  0  0  0  0  0  0  0  0  0  0
    6.0218   16.0886    0.0000 H   0  0  0  0  0  0  0  0  0  0  0  0
    6.4361   14.5082    0.0000 H   0  0  0  0  0  0  0  0  0  0  0  0
    1.9705   12.9458    0.0000 H   0  0  0  0  0  0  0  0  0  0  0  0
    1.2503   12.2224    0.0000 H   0  0  0  0  0  0  0  0  0  0  0  0
   -0.7690    9.8505    0.0000 H   0  0  0  0  0  0  0  0  0  0  0  0
   -1.7827   13.3940    0.0000 H   0  0  0  0  0  0  0  0  0  0  0  0
   -0.1902   14.1795    0.0000 H   0  0  0  0  0  0  0  0  0  0  0  0
    1.0128   13.0740    0.0000 H   0  0  0  0  0  0  0  0  0  0  0  0
   -3.0745   10.6910    0.0000 H   0  0  0  0  0  0  0  0  0  0  0  0
   -1.5794    9.7169    0.0000 H   0  0  0  0  0  0  0  0  0  0  0  0
   -3.9281   12.4969    0.0000 H   0  0  0  0  0  0  0  0  0  0  0  0
   -2.6994   13.9831    0.0000 H   0  0  0  0  0  0  0  0  0  0  0  0
   -1.1908   13.3557    0.0000 H   0  0  0  0  0  0  0  0  0  0  0  0
   -1.9992    9.1918    0.0000 H   0  0  0  0  0  0  0  0  0  0  0  0
   -2.1140    8.3473    0.0000 H   0  0  0  0  0  0  0  0  0  0  0  0
   -4.0246    5.9211    0.0000 H   0  0  0  0  0  0  0  0  0  0  0  0
   -2.5304    5.2603    0.0000 H   0  0  0  0  0  0  0  0  0  0  0  0
   -2.7742    8.9353    0.0000 H   0  0  0  0  0  0  0  0  0  0  0  0
   -6.4066    8.4558    0.0000 H   0  0  0  0  0  0  0  0  0  0  0  0
   -6.5111    6.6745    0.0000 H   0  0  0  0  0  0  0  0  0  0  0  0
   -4.8381    6.0537    0.0000 H   0  0  0  0  0  0  0  0  0  0  0  0
   -5.8403    9.5742    0.0000 H   0  0  0  0  0  0  0  0  0  0  0  0
   -4.4662   10.7127    0.0000 H   0  0  0  0  0  0  0  0  0  0  0  0
   -2.9233    9.5560    0.0000 H   0  0  0  0  0  0  0  0  0  0  0  0
   -3.2081    4.2242    0.0000 H   0  0  0  0  0  0  0  0  0  0  0  0
   -1.8081   -0.0286    0.0000 H   0  0  0  0  0  0  0  0  0  0  0  0
   -2.4747    1.0396    0.0000 H   0  0  0  0  0  0  0  0  0  0  0  0
   -0.9612   -1.3753    0.0000 H   0  0  0  0  0  0  0  0  0  0  0  0
   -1.6530   -0.5322    0.0000 H   0  0  0  0  0  0  0  0  0  0  0  0
    0.2901   -2.6171    0.0000 H   0  0  0  0  0  0  0  0  0  0  0  0
   -0.6275   -1.7548    0.0000 H   0  0  0  0  0  0  0  0  0  0  0  0
    1.7538   -3.5996    0.0000 H   0  0  0  0  0  0  0  0  0  0  0  0
    0.6896   -2.9266    0.0000 H   0  0  0  0  0  0  0  0  0  0  0  0
    3.3770   -4.2874    0.0000 H   0  0  0  0  0  0  0  0  0  0  0  0
    2.2047   -3.8279    0.0000 H   0  0  0  0  0  0  0  0  0  0  0  0
    5.2754   -4.5995    0.0000 H   0  0  0  0  0  0  0  0  0  0  0  0
    3.8629   -4.4262    0.0000 H   0  0  0  0  0  0  0  0  0  0  0  0
    6.2350   -4.8339    0.0000 H   0  0  0  0  0  0  0  0  0  0  0  0
   -4.2372    2.3882    0.0000 H   0  0  0  0  0  0  0  0  0  0  0  0
   -4.1015    4.0164    0.0000 H   0  0  0  0  0  0  0  0  0  0  0  0
   -2.5588    4.5547    0.0000 H   0  0  0  0  0  0  0  0  0  0  0  0
   -4.5693    3.3117    0.0000 H   0  0  0  0  0  0  0  0  0  0  0  0
   -3.7890    0.0114    0.0000 H   0  0  0  0  0  0  0  0  0  0  0  0
   -5.5687   -2.0141    0.0000 H   0  0  0  0  0  0  0  0  0  0  0  0
   -4.1892   -0.8821    0.0000 H   0  0  0  0  0  0  0  0  0  0  0  0
   -7.7431    0.7022    0.0000 H   0  0  0  0  0  0  0  0  0  0  0  0
   -9.1598   -2.5483    0.0000 H   0  0  0  0  0  0  0  0  0  0  0  0
   -7.8572   -3.5345    0.0000 H   0  0  0  0  0  0  0  0  0  0  0  0
   -6.3500   -2.5791    0.0000 H   0  0  0  0  0  0  0  0  0  0  0  0
   -9.3377    0.9974    0.0000 H   0  0  0  0  0  0  0  0  0  0  0  0
   -9.9286   -0.9813    0.0000 H   0  0  0  0  0  0  0  0  0  0  0  0
   -8.8802   -1.7750    0.0000 H   0  0  0  0  0  0  0  0  0  0  0  0
   -7.4808   -1.3568    0.0000 H   0  0  0  0  0  0  0  0  0  0  0  0
   -8.2088    1.7926    0.0000 H   0  0  0  0  0  0  0  0  0  0  0  0
  -11.6251    1.8909    0.0000 H   0  0  0  0  0  0  0  0  0  0  0  0
  -11.2891    0.2920    0.0000 H   0  0  0  0  0  0  0  0  0  0  0  0
   -9.5048    4.2152    0.0000 H   0  0  0  0  0  0  0  0  0  0  0  0
   -8.6296    2.6602    0.0000 H   0  0  0  0  0  0  0  0  0  0  0  0
  -12.0664    1.1802    0.0000 H   0  0  0  0  0  0  0  0  0  0  0  0
  -11.2861   -2.1201    0.0000 H   0  0  0  0  0  0  0  0  0  0  0  0
  -13.2489   -4.1436    0.0000 H   0  0  0  0  0  0  0  0  0  0  0  0
  -11.6863   -3.0137    0.0000 H   0  0  0  0  0  0  0  0  0  0  0  0
  -16.0877   -2.4348    0.0000 H   0  0  0  0  0  0  0  0  0  0  0  0
  -15.2402   -1.4293    0.0000 H   0  0  0  0  0  0  0  0  0  0  0  0
  -17.3516   -5.6923    0.0000 H   0  0  0  0  0  0  0  0  0  0  0  0
  -17.9282   -3.3692    0.0000 H   0  0  0  0  0  0  0  0  0  0  0  0
  -14.9779   -3.4883    0.0000 H   0  0  0  0  0  0  0  0  0  0  0  0
  -15.7059   -0.3389    0.0000 H   0  0  0  0  0  0  0  0  0  0  0  0
  -19.1222   -0.2406    0.0000 H   0  0  0  0  0  0  0  0  0  0  0  0
  -18.6493   -1.9612    0.0000 H   0  0  0  0  0  0  0  0  0  0  0  0
  -17.0019    2.0837    0.0000 H   0  0  0  0  0  0  0  0  0  0  0  0
  -16.1267    0.5287    0.0000 H   0  0  0  0  0  0  0  0  0  0  0  0
  -19.9904    3.8941    0.0000 H   0  0  0  0  0  0  0  0  0  0  0  0
  -17.3991    3.7070    0.0000 H   0  0  0  0  0  0  0  0  0  0  0  0
  -19.5635   -0.9514    0.0000 H   0  0  0  0  0  0  0  0  0  0  0  0
  -18.7832   -4.2517    0.0000 H   0  0  0  0  0  0  0  0  0  0  0  0
  -20.7461   -6.2751    0.0000 H   0  0  0  0  0  0  0  0  0  0  0  0
  -19.1834   -5.1452    0.0000 H   0  0  0  0  0  0  0  0  0  0  0  0
  -22.7434   -6.3014    0.0000 H   0  0  0  0  0  0  0  0  0  0  0  0
  -23.5848   -4.5663    0.0000 H   0  0  0  0  0  0  0  0  0  0  0  0
  -22.7374   -3.5608    0.0000 H   0  0  0  0  0  0  0  0  0  0  0  0
  -22.2926   -5.6026    0.0000 H   0  0  0  0  0  0  0  0  0  0  0  0
  -23.2030   -2.4704    0.0000 H   0  0  0  0  0  0  0  0  0  0  0  0
  -26.6748   -2.5467    0.0000 H   0  0  0  0  0  0  0  0  0  0  0  0
  -26.1464   -4.0927    0.0000 H   0  0  0  0  0  0  0  0  0  0  0  0
  -24.4990   -0.0478    0.0000 H   0  0  0  0  0  0  0  0  0  0  0  0
  -23.6238   -1.6028    0.0000 H   0  0  0  0  0  0  0  0  0  0  0  0
  -27.8085   -0.2090    0.0000 H   0  0  0  0  0  0  0  0  0  0  0  0
  -27.1293   -1.8591    0.0000 H   0  0  0  0  0  0  0  0  0  0  0  0
  -24.8962    1.5755    0.0000 H   0  0  0  0  0  0  0  0  0  0  0  0
  -28.6212    4.1002    0.0000 H   0  0  0  0  0  0  0  0  0  0  0  0
  -26.0299    3.9132    0.0000 H   0  0  0  0  0  0  0  0  0  0  0  0
  -30.0789    1.9496    0.0000 H   0  0  0  0  0  0  0  0  0  0  0  0
  -28.9452   -0.3881    0.0000 H   0  0  0  0  0  0  0  0  0  0  0  0
  -27.0606   -3.0829    0.0000 H   0  0  0  0  0  0  0  0  0  0  0  0
  -26.2803   -6.3832    0.0000 H   0  0  0  0  0  0  0  0  0  0  0  0
  -28.2432   -8.4066    0.0000 H   0  0  0  0  0  0  0  0  0  0  0  0
  -26.6805   -7.2767    0.0000 H   0  0  0  0  0  0  0  0  0  0  0  0
  -31.0819   -6.6978    0.0000 H   0  0  0  0  0  0  0  0  0  0  0  0
  -30.2345   -5.6923    0.0000 H   0  0  0  0  0  0  0  0  0  0  0  0
  -29.9721   -7.7513    0.0000 H   0  0  0  0  0  0  0  0  0  0  0  0
  -30.7002   -4.6020    0.0000 H   0  0  0  0  0  0  0  0  0  0  0  0
  -34.2057   -4.8582    0.0000 H   0  0  0  0  0  0  0  0  0  0  0  0
  -33.4928   -6.3283    0.0000 H   0  0  0  0  0  0  0  0  0  0  0  0
  -31.9961   -2.1793    0.0000 H   0  0  0  0  0  0  0  0  0  0  0  0
  -31.1209   -3.7344    0.0000 H   0  0  0  0  0  0  0  0  0  0  0  0
  -35.3056   -2.3405    0.0000 H   0  0  0  0  0  0  0  0  0  0  0  0
  -34.6264   -3.9907    0.0000 H   0  0  0  0  0  0  0  0  0  0  0  0
  -32.3933   -0.5560    0.0000 H   0  0  0  0  0  0  0  0  0  0  0  0
  -36.1183    1.9687    0.0000 H   0  0  0  0  0  0  0  0  0  0  0  0
  -33.5270    1.7817    0.0000 H   0  0  0  0  0  0  0  0  0  0  0  0
  -37.5760   -0.1819    0.0000 H   0  0  0  0  0  0  0  0  0  0  0  0
  -36.4423   -2.5196    0.0000 H   0  0  0  0  0  0  0  0  0  0  0  0
  1  2  1  0
  2  3  1  0
  3  4  1  0
  4  5  2  0
  4  6  1  0
  6  7  1  0
  7  8  1  0
  8  9  1  0
  9 10  1  0
  9 11  1  0
  7 12  1  0
 12 13  2  0
 12 14  1  0
 15 14  1  6
 15 16  1  0
 16 17  1  0
 17 18  1  0
 18 19  1  0
 15 20  1  0
 15 21  1  0
 21 22  2  0
 21 23  1  0
 23 24  1  0
 24 25  1  0
 25 26  1  0
 25 27  1  0
 27 28  1  0
 24 29  1  0
 29 30  2  0
 29 31  1  0
 31 32  1  0
 32 33  1  0
 33 34  1  0
 34 35  1  0
 34 36  1  0
 32 37  1  0
 37 38  2  0
 37 39  1  0
 39 40  1  0
 40 41  1  0
 41 42  1  0
 42 43  1  0
 43 44  1  0
 43 45  2  0
 40 46  1  0
 46 47  2  0
 46 48  1  0
 48 49  1  0
 49 50  1  0
 50 51  1  0
 51 52  1  0
 52 53  1  0
 49 54  1  0
 54 55  1  0
 55 56  1  0
 56 57  1  0
 49 58  1  0
 58 59  2  0
 58 60  1  0
 60 61  1  0
 61 62  1  0
 61 63  1  0
 63 64  2  0
 63 65  1  0
 65 66  1  0
 66 67  1  0
 67 68  1  0
 66 69  1  0
 69 70  2  0
 69 71  1  0
 71 72  1  0
 72 73  1  0
 73 74  1  0
 74 75  1  0
 75 76  1  0
 75 77  2  0
 72 78  1  0
 78 79  2  0
 78 80  1  0
 80 81  1  0
 81 82  1  0
 82 83  1  0
 81 84  1  0
 84 85  2  0
 84 86  1  0
 86 87  1  0
 87 88  1  0
 88 89  1  0
 88 90  1  0
 90 91  1  0
 87 92  1  0
 92 93  2  0
 92 94  1  0
 94 95  1  0
 95 96  1  0
 96 97  1  0
 97 98  1  0
 97 99  1  0
 95100  1  0
100101  2  0
100102  1  0
102103  1  0
103104  1  0
104105  1  0
105106  1  0
106107  1  0
107108  1  0
108109  1  0
109110  1  0
103111  1  0
103112  1  1
112113  2  0
112114  1  0
114115  1  0
115116  1  0
116117  1  0
117118  1  0
117119  1  0
115120  1  0
120121  2  0
120122  1  0
122123  1  0
123124  1  0
124125  1  0
125126  1  0
126127  2  0
126128  1  0
123129  1  0
129130  2  0
129131  1  0
131132  1  0
132133  1  0
133134  1  0
134135  1  0
135136  1  0
135137  2  0
132138  1  0
138139  2  0
138140  1  0
140141  1  0
141142  1  0
142143  1  0
143144  1  0
144145  1  0
144146  2  0
141147  1  0
147148  2  0
147149  1  0
149150  1  0
150151  1  0
151152  1  0
150153  1  0
153154  2  0
153155  1  0
155156  1  0
156157  1  0
157158  1  0
158159  1  0
159160  1  0
160161  1  0
161162  2  3
161163  1  0
156164  1  0
164165  2  0
164166  1  0
166167  1  0
167168  1  0
168169  1  0
169170  1  0
170171  2  0
170172  1  0
167173  1  0
173174  2  0
173175  1  0
175176  1  0
176177  1  0
177178  1  0
178179  1  0
179180  1  0
180181  1  0
181182  2  3
181183  1  0
176184  1  0
184185  2  0
184186  1  0
 19 53  2  0
 57110  2  0
  1187  1  0
  1188  1  0
  2189  1  0
  2190  1  0
  3191  1  0
  3192  1  0
  6193  1  0
  7194  1  6
  8195  1  0
  8196  1  0
  9197  1  0
 10198  1  0
 10199  1  0
 10200  1  0
 11201  1  0
 11202  1  0
 11203  1  0
 14204  1  0
 16205  1  0
 16206  1  0
 17207  1  0
 17208  1  0
 18209  1  0
 18210  1  0
 19211  1  0
 20212  1  0
 20213  1  0
 20214  1  0
 23215  1  0
 24216  1  1
 25217  1  1
 26218  1  0
 26219  1  0
 26220  1  0
 27221  1  0
 27222  1  0
 28223  1  0
 28224  1  0
 28225  1  0
 31226  1  0
 32227  1  1
 33228  1  0
 33229  1  0
 34230  1  0
 35231  1  0
 35232  1  0
 35233  1  0
 36234  1  0
 36235  1  0
 36236  1  0
 39237  1  0
 40238  1  1
 41239  1  0
 41240  1  0
 42241  1  0
 42242  1  0
 44243  1  0
 44244  1  0
 48245  1  0
 50246  1  0
 50247  1  0
 51248  1  0
 51249  1  0
 52250  1  0
 52251  1  0
 53252  1  0
 54253  1  0
 54254  1  0
 55255  1  0
 55256  1  0
 56257  1  0
 56258  1  0
 57259  1  0
 60260  1  0
 61261  1  6
 62262  1  0
 62263  1  0
 62264  1  0
 65265  1  0
 66266  1  6
 67267  1  0
 67268  1  0
 68269  1  0
 68270  1  0
 68271  1  0
 71272  1  0
 72273  1  6
 73274  1  0
 73275  1  0
 74276  1  0
 74277  1  0
 76278  1  0
 76279  1  0
 80280  1  0
 81281  1  6
 82282  1  0
 82283  1  0
 83284  1  0
 83285  1  0
 83286  1  0
 86287  1  0
 87288  1  6
 88289  1  1
 89290  1  0
 89291  1  0
 89292  1  0
 90293  1  0
 90294  1  0
 91295  1  0
 91296  1  0
 91297  1  0
 94298  1  0
 95299  1  6
 96300  1  0
 96301  1  0
 97302  1  0
 98303  1  0
 98304  1  0
 98305  1  0
 99306  1  0
 99307  1  0
 99308  1  0
102309  1  0
104310  1  0
104311  1  0
105312  1  0
105313  1  0
106314  1  0
106315  1  0
107316  1  0
107317  1  0
108318  1  0
108319  1  0
109320  1  0
109321  1  0
110322  1  0
111323  1  0
111324  1  0
111325  1  0
114326  1  0
115327  1  1
116328  1  0
116329  1  0
117330  1  0
118331  1  0
118332  1  0
118333  1  0
119334  1  0
119335  1  0
119336  1  0
122337  1  0
123338  1  6
124339  1  0
124340  1  0
125341  1  0
125342  1  0
131343  1  0
132344  1  1
133345  1  0
133346  1  0
134347  1  0
134348  1  0
136349  1  0
136350  1  0
140351  1  0
141352  1  6
142353  1  0
142354  1  0
143355  1  0
143356  1  0
145357  1  0
145358  1  0
149359  1  0
150360  1  1
151361  1  0
151362  1  0
152363  1  0
152364  1  0
152365  1  0
155366  1  0
156367  1  6
157368  1  0
157369  1  0
158370  1  0
158371  1  0
159372  1  0
159373  1  0
160374  1  0
162375  1  0
162376  1  0
163377  1  0
163378  1  0
166379  1  0
167380  1  1
168381  1  0
168382  1  0
169383  1  0
169384  1  0
175385  1  0
176386  1  6
177387  1  0
177388  1  0
178389  1  0
178390  1  0
179391  1  0
179392  1  0
180393  1  0
182394  1  0
182395  1  0
183396  1  0
183397  1  0
M  CHG  5 128  -1 162   1 172  -1 182   1 186  -1
M  END
