
     RDKit          2D

327340  0  0  0  0  0  0  0  0999 V2000
  -24.4482    0.0267    0.0000 C   0  0  0  0  0  0  0  0  0  0  0  0
  -25.6418   -0.8819    0.0000 N   0  0  0  0  0  0  0  0  0  0  0  0
  -27.0254   -0.3025    0.0000 C   0  0  0  0  0  0  0  0  0  0  0  0
  -27.2154    1.1854    0.0000 C   0  0  0  0  0  0  0  0  0  0  0  0
  -28.5990    1.7648    0.0000 C   0  0  0  0  0  0  0  0  0  0  0  0
  -29.7926    0.8563    0.0000 C   0  0  0  0  0  0  0  0  0  0  0  0
  -29.6025   -0.6317    0.0000 C   0  0  0  0  0  0  0  0  0  0  0  0
  -28.2189   -1.2110    0.0000 C   0  0  0  0  0  0  0  0  0  0  0  0
  -30.9589   -1.2722    0.0000 C   0  0  0  0  0  0  0  0  0  0  0  0
  -31.9872   -0.1802    0.0000 O   0  0  0  0  0  0  0  0  0  0  0  0
  -31.2664    1.1353    0.0000 C   0  0  0  0  0  0  0  0  0  0  0  0
  -31.9069    2.4917    0.0000 O   0  0  0  0  0  0  0  0  0  0  0  0
  -32.3748   -1.7674    0.0000 C   0  0  0  0  0  0  0  0  0  0  0  0
  -32.6538   -3.2413    0.0000 C   0  0  0  0  0  0  0  0  0  0  0  0
  -34.0697   -3.7365    0.0000 C   0  0  0  0  0  0  0  0  0  0  0  0
  -35.2065   -2.7579    0.0000 C   0  0  0  0  0  0  0  0  0  0  0  0
  -34.9275   -1.2841    0.0000 C   0  0  0  0  0  0  0  0  0  0  0  0
  -33.5116   -0.7889    0.0000 C   0  0  0  0  0  0  0  0  0  0  0  0
  -36.6224   -3.2532    0.0000 O   0  0  0  0  0  0  0  0  0  0  0  0
  -31.5170   -4.2198    0.0000 O   0  0  0  0  0  0  0  0  0  0  0  0
  -30.1011   -3.7246    0.0000 C   0  0  0  0  0  0  0  0  0  0  0  0
  -29.8220   -2.2508    0.0000 C   0  0  0  0  0  0  0  0  0  0  0  0
  -28.5364   -2.4433    0.0000 C   0  0  0  0  0  0  0  0  0  0  0  0
  -27.9300   -2.9652    0.0000 C   0  0  0  0  0  0  0  0  0  0  0  0
  -28.0789   -3.7512    0.0000 C   0  0  0  0  0  0  0  0  0  0  0  0
  -28.8340   -4.0154    0.0000 C   0  0  0  0  0  0  0  0  0  0  0  0
  -26.4115   -5.1865    0.0000 O   0  0  0  0  0  0  0  0  0  0  0  0
  -24.6383    1.5146    0.0000 S   0  0  0  0  0  0  0  0  0  0  0  0
  -23.0646   -0.5527    0.0000 N   0  0  0  0  0  0  0  0  0  0  0  0
  -21.8711    0.3559    0.0000 C   0  0  0  0  0  0  0  0  0  0  0  0
  -20.4875   -0.2235    0.0000 C   0  0  0  0  0  0  0  0  0  0  0  0
  -19.2940    0.6850    0.0000 C   0  0  0  0  0  0  0  0  0  0  0  0
  -19.4840    2.1729    0.0000 O   0  0  0  0  0  0  0  0  0  0  0  0
  -17.9104    0.1057    0.0000 N   0  0  0  0  0  0  0  0  0  0  0  0
  -16.7168    1.0142    0.0000 C   0  0  0  0  0  0  0  0  0  0  0  0
  -15.9060    2.2762    0.0000 C   0  0  0  0  0  0  0  0  0  0  0  0
  -14.4817    2.7468    0.0000 O   0  0  0  0  0  0  0  0  0  0  0  0
  -15.3332    0.4348    0.0000 C   0  0  0  0  0  0  0  0  0  0  0  0
  -15.1432   -1.0531    0.0000 O   0  0  0  0  0  0  0  0  0  0  0  0
  -14.1397    1.3434    0.0000 N   0  0  0  0  0  0  0  0  0  0  0  0
  -12.7561    0.7640    0.0000 C   0  0  0  0  0  0  0  0  0  0  0  0
  -11.6541   -0.2536    0.0000 C   0  0  0  0  0  0  0  0  0  0  0  0
  -11.9844   -1.7168    0.0000 O   0  0  0  0  0  0  0  0  0  0  0  0
  -11.5625    1.6726    0.0000 C   0  0  0  0  0  0  0  0  0  0  0  0
  -11.7526    3.1605    0.0000 O   0  0  0  0  0  0  0  0  0  0  0  0
  -10.1789    1.0932    0.0000 N   0  0  0  0  0  0  0  0  0  0  0  0
   -8.9854    2.0017    0.0000 C   0  0  0  0  0  0  0  0  0  0  0  0
   -8.1746    3.2637    0.0000 C   0  0  0  0  0  0  0  0  0  0  0  0
   -6.6788    3.3756    0.0000 C   0  0  0  0  0  0  0  0  0  0  0  0
   -7.6018    1.4224    0.0000 C   0  0  0  0  0  0  0  0  0  0  0  0
   -7.5945   -0.0776    0.0000 O   0  0  0  0  0  0  0  0  0  0  0  0
   -6.4083    2.3309    0.0000 N   0  0  0  0  0  0  0  0  0  0  0  0
   -5.0247    1.7515    0.0000 C   0  0  0  0  0  0  0  0  0  0  0  0
   -3.9227    0.7339    0.0000 C   0  0  0  0  0  0  0  0  0  0  0  0
   -4.2530   -0.7293    0.0000 C   0  0  0  0  0  0  0  0  0  0  0  0
   -5.6853   -1.1748    0.0000 C   0  0  0  0  0  0  0  0  0  0  0  0
   -6.0156   -2.6380    0.0000 C   0  0  0  0  0  0  0  0  0  0  0  0
   -4.9136   -3.6557    0.0000 C   0  0  0  0  0  0  0  0  0  0  0  0
   -3.4813   -3.2101    0.0000 C   0  0  0  0  0  0  0  0  0  0  0  0
   -3.1510   -1.7469    0.0000 C   0  0  0  0  0  0  0  0  0  0  0  0
   -3.8311    2.6601    0.0000 C   0  0  0  0  0  0  0  0  0  0  0  0
   -4.0212    4.1480    0.0000 O   0  0  0  0  0  0  0  0  0  0  0  0
   -2.4475    2.0807    0.0000 N   0  0  0  0  0  0  0  0  0  0  0  0
   -1.2540    2.9892    0.0000 C   0  0  0  0  0  0  0  0  0  0  0  0
   -0.4432    4.2512    0.0000 C   0  0  0  0  0  0  0  0  0  0  0  0
    1.0552    4.1800    0.0000 C   0  0  0  0  0  0  0  0  0  0  0  0
    1.7426    2.8468    0.0000 C   0  0  0  0  0  0  0  0  0  0  0  0
    3.2409    2.7756    0.0000 C   0  0  0  0  0  0  0  0  0  0  0  0
    4.0518    4.0376    0.0000 C   0  0  0  0  0  0  0  0  0  0  0  0
    5.5501    3.9664    0.0000 O   0  0  0  0  0  0  0  0  0  0  0  0
    3.3643    5.3707    0.0000 C   0  0  0  0  0  0  0  0  0  0  0  0
    1.8660    5.4420    0.0000 C   0  0  0  0  0  0  0  0  0  0  0  0
    0.1296    2.4099    0.0000 C   0  0  0  0  0  0  0  0  0  0  0  0
   -0.0460    0.9202    0.0000 O   0  0  0  0  0  0  0  0  0  0  0  0
    1.3232    3.3184    0.0000 N   0  0  0  0  0  0  0  0  0  0  0  0
    2.7068    2.7390    0.0000 C   0  0  0  0  0  0  0  0  0  0  0  0
    3.1879    1.3183    0.0000 C   0  0  0  0  0  0  0  0  0  0  0  0
    4.0664    0.1025    0.0000 C   0  0  0  0  0  0  0  0  0  0  0  0
    5.2642   -0.8004    0.0000 C   0  0  0  0  0  0  0  0  0  0  0  0
    6.6750   -1.3101    0.0000 C   0  0  0  0  0  0  0  0  0  0  0  0
    1.6096    1.7162    0.0000 C   0  0  0  0  0  0  0  0  0  0  0  0
    2.6658    4.2385    0.0000 C   0  0  0  0  0  0  0  0  0  0  0  0
    1.3415    4.9430    0.0000 O   0  0  0  0  0  0  0  0  0  0  0  0
    3.0686    5.6834    0.0000 N   0  0  0  0  0  0  0  0  0  0  0  0
    3.8795    6.9453    0.0000 C   0  0  0  0  0  0  0  0  0  0  0  0
    3.4698    8.3883    0.0000 C   0  0  0  0  0  0  0  0  0  0  0  0
    2.0153    8.7550    0.0000 C   0  0  0  0  0  0  0  0  0  0  0  0
    1.6056   10.1980    0.0000 C   0  0  0  0  0  0  0  0  0  0  0  0
    0.1511   10.5647    0.0000 C   0  0  0  0  0  0  0  0  0  0  0  0
   -0.8937    9.4884    0.0000 C   0  0  0  0  0  0  0  0  0  0  0  0
   -2.3482    9.8551    0.0000 O   0  0  0  0  0  0  0  0  0  0  0  0
   -0.4840    8.0454    0.0000 C   0  0  0  0  0  0  0  0  0  0  0  0
    0.9705    7.6787    0.0000 C   0  0  0  0  0  0  0  0  0  0  0  0
    5.0262    7.9123    0.0000 C   0  0  0  0  0  0  0  0  0  0  0  0
    4.2410    9.1903    0.0000 O   0  0  0  0  0  0  0  0  0  0  0  0
    6.4071    8.4982    0.0000 N   0  0  0  0  0  0  0  0  0  0  0  0
    7.8992    8.6511    0.0000 C   0  0  0  0  0  0  0  0  0  0  0  0
    8.7720    9.8711    0.0000 C   0  0  0  0  0  0  0  0  0  0  0  0
    8.1518   11.2368    0.0000 C   0  0  0  0  0  0  0  0  0  0  0  0
    9.0245   12.4568    0.0000 C   0  0  0  0  0  0  0  0  0  0  0  0
    8.4043   13.8226    0.0000 C   0  0  0  0  0  0  0  0  0  0  0  0
    6.9114   13.9684    0.0000 C   0  0  0  0  0  0  0  0  0  0  0  0
    6.0387   12.7484    0.0000 C   0  0  0  0  0  0  0  0  0  0  0  0
    6.6589   11.3827    0.0000 C   0  0  0  0  0  0  0  0  0  0  0  0
    9.3702    8.3573    0.0000 C   0  0  0  0  0  0  0  0  0  0  0  0
    9.8799    9.7681    0.0000 O   0  0  0  0  0  0  0  0  0  0  0  0
   10.6892    7.6431    0.0000 N   0  0  0  0  0  0  0  0  0  0  0  0
   11.7391    6.5718    0.0000 C   0  0  0  0  0  0  0  0  0  0  0  0
   13.2371    6.6501    0.0000 C   0  0  0  0  0  0  0  0  0  0  0  0
   13.9182    7.9865    0.0000 C   0  0  0  0  0  0  0  0  0  0  0  0
   13.2374    9.3231    0.0000 C   0  0  0  0  0  0  0  0  0  0  0  0
   14.2982   10.3837    0.0000 N   0  0  0  0  0  0  0  0  0  0  0  0
   15.6346    9.7025    0.0000 C   0  0  0  0  0  0  0  0  0  0  0  0
   15.3998    8.2210    0.0000 N   0  0  0  0  0  0  0  0  0  0  0  0
   12.4266    5.2386    0.0000 C   0  0  0  0  0  0  0  0  0  0  0  0
   13.8474    5.7197    0.0000 O   0  0  0  0  0  0  0  0  0  0  0  0
   12.6906    3.7620    0.0000 N   0  0  0  0  0  0  0  0  0  0  0  0
   12.5076    2.2732    0.0000 C   0  0  0  0  0  0  0  0  0  0  0  0
   11.8939    0.9045    0.0000 C   0  0  0  0  0  0  0  0  0  0  0  0
   10.9041   -0.2225    0.0000 C   0  0  0  0  0  0  0  0  0  0  0  0
    9.6260   -1.0077    0.0000 C   0  0  0  0  0  0  0  0  0  0  0  0
    8.1733   -1.3813    0.0000 C   0  0  0  0  0  0  0  0  0  0  0  0
   13.9399    2.7188    0.0000 C   0  0  0  0  0  0  0  0  0  0  0  0
   13.5028    1.1509    0.0000 C   0  0  0  0  0  0  0  0  0  0  0  0
   13.3869   -0.3446    0.0000 O   0  0  0  0  0  0  0  0  0  0  0  0
   14.9724    1.4516    0.0000 N   0  0  0  0  0  0  0  0  0  0  0  0
   15.9676    0.3293    0.0000 C   0  0  0  0  0  0  0  0  0  0  0  0
   16.5189   -1.0657    0.0000 C   0  0  0  0  0  0  0  0  0  0  0  0
   15.4502   -2.1182    0.0000 C   0  0  0  0  0  0  0  0  0  0  0  0
   17.4371    0.6300    0.0000 C   0  0  0  0  0  0  0  0  0  0  0  0
   17.9115    2.0530    0.0000 O   0  0  0  0  0  0  0  0  0  0  0  0
   18.4323   -0.4923    0.0000 N   0  0  0  0  0  0  0  0  0  0  0  0
   19.9252   -0.3469    0.0000 C   0  0  0  0  0  0  0  0  0  0  0  0
   20.5249   -1.7218    0.0000 C   0  0  0  0  0  0  0  0  0  0  0  0
   19.4026   -2.7170    0.0000 C   0  0  0  0  0  0  0  0  0  0  0  0
   18.1093   -1.9571    0.0000 C   0  0  0  0  0  0  0  0  0  0  0  0
   17.4888   -3.3228    0.0000 C   0  0  0  0  0  0  0  0  0  0  0  0
   18.2060   -4.6402    0.0000 O   0  0  0  0  0  0  0  0  0  0  0  0
   15.9959   -3.4682    0.0000 N   0  0  0  0  0  0  0  0  0  0  0  0
   15.3754   -4.8338    0.0000 C   0  0  0  0  0  0  0  0  0  0  0  0
   15.2594   -6.3294    0.0000 C   0  0  0  0  0  0  0  0  0  0  0  0
   13.9062   -6.9766    0.0000 C   0  0  0  0  0  0  0  0  0  0  0  0
   12.6691   -6.1284    0.0000 C   0  0  0  0  0  0  0  0  0  0  0  0
   11.3159   -6.7757    0.0000 C   0  0  0  0  0  0  0  0  0  0  0  0
   11.1999   -8.2712    0.0000 C   0  0  0  0  0  0  0  0  0  0  0  0
    9.8468   -8.9185    0.0000 O   0  0  0  0  0  0  0  0  0  0  0  0
   12.4371   -9.1194    0.0000 C   0  0  0  0  0  0  0  0  0  0  0  0
   13.7902   -8.4722    0.0000 C   0  0  0  0  0  0  0  0  0  0  0  0
   13.8824   -4.9793    0.0000 C   0  0  0  0  0  0  0  0  0  0  0  0
   13.3312   -3.5843    0.0000 O   0  0  0  0  0  0  0  0  0  0  0  0
   13.2619   -6.3449    0.0000 N   0  0  0  0  0  0  0  0  0  0  0  0
   11.7690   -6.4904    0.0000 C   0  0  0  0  0  0  0  0  0  0  0  0
   10.3164   -6.1165    0.0000 C   0  0  0  0  0  0  0  0  0  0  0  0
    9.9139   -4.6715    0.0000 C   0  0  0  0  0  0  0  0  0  0  0  0
   10.9640   -3.6004    0.0000 C   0  0  0  0  0  0  0  0  0  0  0  0
   10.5615   -2.1554    0.0000 C   0  0  0  0  0  0  0  0  0  0  0  0
    9.1089   -1.7815    0.0000 C   0  0  0  0  0  0  0  0  0  0  0  0
    8.0587   -2.8525    0.0000 C   0  0  0  0  0  0  0  0  0  0  0  0
    8.4612   -4.2975    0.0000 C   0  0  0  0  0  0  0  0  0  0  0  0
   11.1485   -7.8560    0.0000 C   0  0  0  0  0  0  0  0  0  0  0  0
   11.6997   -9.2511    0.0000 O   0  0  0  0  0  0  0  0  0  0  0  0
    9.6556   -8.0015    0.0000 N   0  0  0  0  0  0  0  0  0  0  0  0
    9.0351   -9.3671    0.0000 C   0  0  0  0  0  0  0  0  0  0  0  0
    8.9191  -10.8626    0.0000 C   0  0  0  0  0  0  0  0  0  0  0  0
    7.5659  -11.5099    0.0000 C   0  0  0  0  0  0  0  0  0  0  0  0
    7.4499  -13.0054    0.0000 C   0  0  0  0  0  0  0  0  0  0  0  0
    6.1857  -13.8128    0.0000 O   0  0  0  0  0  0  0  0  0  0  0  0
    8.6871  -13.8536    0.0000 O   0  0  0  0  0  0  0  0  0  0  0  0
    7.5421   -9.5126    0.0000 C   0  0  0  0  0  0  0  0  0  0  0  0
    6.6697   -8.2924    0.0000 O   0  0  0  0  0  0  0  0  0  0  0  0
    6.9216  -10.8782    0.0000 N   0  0  0  0  0  0  0  0  0  0  0  0
    5.4287  -11.0237    0.0000 C   0  0  0  0  0  0  0  0  0  0  0  0
    3.9761  -10.6497    0.0000 C   0  0  0  0  0  0  0  0  0  0  0  0
    3.5736   -9.2047    0.0000 C   0  0  0  0  0  0  0  0  0  0  0  0
    2.1209   -8.8308    0.0000 C   0  0  0  0  0  0  0  0  0  0  0  0
    3.6896   -7.7092    0.0000 C   0  0  0  0  0  0  0  0  0  0  0  0
    4.8082  -12.3893    0.0000 C   0  0  0  0  0  0  0  0  0  0  0  0
    3.3441  -12.7157    0.0000 O   0  0  0  0  0  0  0  0  0  0  0  0
    5.5254  -13.7068    0.0000 O   0  0  0  0  0  0  0  0  0  0  0  0
  -25.2718   -2.3355    0.0000 H   0  0  0  0  0  0  0  0  0  0  0  0
  -26.0219    2.0940    0.0000 H   0  0  0  0  0  0  0  0  0  0  0  0
  -28.7891    3.2527    0.0000 H   0  0  0  0  0  0  0  0  0  0  0  0
  -27.6745   -2.6087    0.0000 H   0  0  0  0  0  0  0  0  0  0  0  0
  -34.3487   -5.2103    0.0000 H   0  0  0  0  0  0  0  0  0  0  0  0
  -36.0643   -0.3056    0.0000 H   0  0  0  0  0  0  0  0  0  0  0  0
  -33.2325    0.6849    0.0000 H   0  0  0  0  0  0  0  0  0  0  0  0
  -37.7592   -2.2746    0.0000 H   0  0  0  0  0  0  0  0  0  0  0  0
  -28.1271   -0.2817    0.0000 H   0  0  0  0  0  0  0  0  0  0  0  0
  -25.8036   -2.4151    0.0000 H   0  0  0  0  0  0  0  0  0  0  0  0
  -29.2433   -6.1770    0.0000 H   0  0  0  0  0  0  0  0  0  0  0  0
  -26.6905   -6.6603    0.0000 H   0  0  0  0  0  0  0  0  0  0  0  0
  -22.8746   -2.0406    0.0000 H   0  0  0  0  0  0  0  0  0  0  0  0
  -21.0603    1.6178    0.0000 H   0  0  0  0  0  0  0  0  0  0  0  0
  -22.9731    1.3735    0.0000 H   0  0  0  0  0  0  0  0  0  0  0  0
  -19.3855   -1.2412    0.0000 H   0  0  0  0  0  0  0  0  0  0  0  0
  -21.2983   -1.4855    0.0000 H   0  0  0  0  0  0  0  0  0  0  0  0
  -17.7203   -1.3822    0.0000 H   0  0  0  0  0  0  0  0  0  0  0  0
  -17.8188    2.0319    0.0000 H   0  0  0  0  0  0  0  0  0  0  0  0
  -15.5757    3.7394    0.0000 H   0  0  0  0  0  0  0  0  0  0  0  0
  -17.2896    2.8555    0.0000 H   0  0  0  0  0  0  0  0  0  0  0  0
  -13.5968    3.4669    0.0000 H   0  0  0  0  0  0  0  0  0  0  0  0
  -14.1469    2.8434    0.0000 H   0  0  0  0  0  0  0  0  0  0  0  0
  -13.5669   -0.4980    0.0000 H   0  0  0  0  0  0  0  0  0  0  0  0
  -10.3514   -0.9973    0.0000 H   0  0  0  0  0  0  0  0  0  0  0  0
  -10.5620    0.7746    0.0000 H   0  0  0  0  0  0  0  0  0  0  0  0
  -10.8824   -2.7345    0.0000 H   0  0  0  0  0  0  0  0  0  0  0  0
   -9.8089   -0.3605    0.0000 H   0  0  0  0  0  0  0  0  0  0  0  0
  -10.0874    3.0194    0.0000 H   0  0  0  0  0  0  0  0  0  0  0  0
   -7.8443    4.7269    0.0000 H   0  0  0  0  0  0  0  0  0  0  0  0
   -9.5582    3.8431    0.0000 H   0  0  0  0  0  0  0  0  0  0  0  0
   -5.8654    4.4544    0.0000 H   0  0  0  0  0  0  0  0  0  0  0  0
   -5.2927    2.6131    0.0000 H   0  0  0  0  0  0  0  0  0  0  0  0
   -6.2808    1.7455    0.0000 H   0  0  0  0  0  0  0  0  0  0  0  0
   -6.4155    3.8309    0.0000 H   0  0  0  0  0  0  0  0  0  0  0  0
   -5.8355    0.4896    0.0000 H   0  0  0  0  0  0  0  0  0  0  0  0
   -2.6200   -0.0098    0.0000 H   0  0  0  0  0  0  0  0  0  0  0  0
   -2.8306    1.7621    0.0000 H   0  0  0  0  0  0  0  0  0  0  0  0
   -6.9031   -0.2991    0.0000 H   0  0  0  0  0  0  0  0  0  0  0  0
   -7.4479   -3.0835    0.0000 H   0  0  0  0  0  0  0  0  0  0  0  0
   -5.2439   -5.1188    0.0000 H   0  0  0  0  0  0  0  0  0  0  0  0
   -2.3793   -4.2278    0.0000 H   0  0  0  0  0  0  0  0  0  0  0  0
   -1.7187   -1.3014    0.0000 H   0  0  0  0  0  0  0  0  0  0  0  0
   -2.0775    0.6270    0.0000 H   0  0  0  0  0  0  0  0  0  0  0  0
   -2.3560    4.0069    0.0000 H   0  0  0  0  0  0  0  0  0  0  0  0
   -0.1128    5.7144    0.0000 H   0  0  0  0  0  0  0  0  0  0  0  0
   -1.8267    4.8306    0.0000 H   0  0  0  0  0  0  0  0  0  0  0  0
    0.6505    1.8185    0.0000 H   0  0  0  0  0  0  0  0  0  0  0  0
    4.2306    1.6484    0.0000 H   0  0  0  0  0  0  0  0  0  0  0  0
    6.2376    2.6332    0.0000 H   0  0  0  0  0  0  0  0  0  0  0  0
    4.4564    6.3990    0.0000 H   0  0  0  0  0  0  0  0  0  0  0  0
    0.8763    6.5692    0.0000 H   0  0  0  0  0  0  0  0  0  0  0  0
    1.3159    4.8184    0.0000 H   0  0  0  0  0  0  0  0  0  0  0  0
    1.7040    1.0985    0.0000 H   0  0  0  0  0  0  0  0  0  0  0  0
    2.4409    0.0175    0.0000 H   0  0  0  0  0  0  0  0  0  0  0  0
    2.7132   -0.5449    0.0000 H   0  0  0  0  0  0  0  0  0  0  0  0
    3.5602   -1.3095    0.0000 H   0  0  0  0  0  0  0  0  0  0  0  0
    4.0462   -1.6759    0.0000 H   0  0  0  0  0  0  0  0  0  0  0  0
    5.3799   -2.2959    0.0000 H   0  0  0  0  0  0  0  0  0  0  0  0
    6.2041   -2.7343    0.0000 H   0  0  0  0  0  0  0  0  0  0  0  0
    1.5832    0.2164    0.0000 H   0  0  0  0  0  0  0  0  0  0  0  0
    0.4116    0.8135    0.0000 H   0  0  0  0  0  0  0  0  0  0  0  0
    0.5126    2.7392    0.0000 H   0  0  0  0  0  0  0  0  0  0  0  0
    1.6999    6.2971    0.0000 H   0  0  0  0  0  0  0  0  0  0  0  0
    2.3957    7.1654    0.0000 H   0  0  0  0  0  0  0  0  0  0  0  0
    3.5783    9.8844    0.0000 H   0  0  0  0  0  0  0  0  0  0  0  0
    4.8806    8.8977    0.0000 H   0  0  0  0  0  0  0  0  0  0  0  0
    2.6504   11.2743    0.0000 H   0  0  0  0  0  0  0  0  0  0  0  0
   -0.2586   12.0076    0.0000 H   0  0  0  0  0  0  0  0  0  0  0  0
   -3.3930    8.7788    0.0000 H   0  0  0  0  0  0  0  0  0  0  0  0
   -1.5288    6.9691    0.0000 H   0  0  0  0  0  0  0  0  0  0  0  0
    1.0188    6.1795    0.0000 H   0  0  0  0  0  0  0  0  0  0  0  0
    5.8592    9.8945    0.0000 H   0  0  0  0  0  0  0  0  0  0  0  0
    7.1462    9.9483    0.0000 H   0  0  0  0  0  0  0  0  0  0  0  0
   10.0093   10.7190    0.0000 H   0  0  0  0  0  0  0  0  0  0  0  0
   10.0499    9.0856    0.0000 H   0  0  0  0  0  0  0  0  0  0  0  0
   10.5174   12.3110    0.0000 H   0  0  0  0  0  0  0  0  0  0  0  0
    9.2771   15.0426    0.0000 H   0  0  0  0  0  0  0  0  0  0  0  0
    6.2913   15.3342    0.0000 H   0  0  0  0  0  0  0  0  0  0  0  0
    4.5458   12.8943    0.0000 H   0  0  0  0  0  0  0  0  0  0  0  0
    5.6440   10.2782    0.0000 H   0  0  0  0  0  0  0  0  0  0  0  0
   11.4394    8.9421    0.0000 H   0  0  0  0  0  0  0  0  0  0  0  0
   12.2838    7.9694    0.0000 H   0  0  0  0  0  0  0  0  0  0  0  0
   14.6715    6.2114    0.0000 H   0  0  0  0  0  0  0  0  0  0  0  0
   13.4198    5.1613    0.0000 H   0  0  0  0  0  0  0  0  0  0  0  0
   11.7956    9.7368    0.0000 H   0  0  0  0  0  0  0  0  0  0  0  0
   14.0637   11.8652    0.0000 H   0  0  0  0  0  0  0  0  0  0  0  0
   16.9712   10.3833    0.0000 H   0  0  0  0  0  0  0  0  0  0  0  0
   14.1900    3.8030    0.0000 H   0  0  0  0  0  0  0  0  0  0  0  0
   12.5141   -0.4613    0.0000 H   0  0  0  0  0  0  0  0  0  0  0  0
   13.3502    0.5450    0.0000 H   0  0  0  0  0  0  0  0  0  0  0  0
   11.7705   -1.4470    0.0000 H   0  0  0  0  0  0  0  0  0  0  0  0
   12.2743   -0.8328    0.0000 H   0  0  0  0  0  0  0  0  0  0  0  0
    9.0191   -2.3794    0.0000 H   0  0  0  0  0  0  0  0  0  0  0  0
   10.9607   -1.6922    0.0000 H   0  0  0  0  0  0  0  0  0  0  0  0
    8.6827   -2.7921    0.0000 H   0  0  0  0  0  0  0  0  0  0  0  0
   15.2554    1.9980    0.0000 H   0  0  0  0  0  0  0  0  0  0  0  0
   15.0138    3.7660    0.0000 H   0  0  0  0  0  0  0  0  0  0  0  0
   13.5955    4.1787    0.0000 H   0  0  0  0  0  0  0  0  0  0  0  0
   15.6166    2.8062    0.0000 H   0  0  0  0  0  0  0  0  0  0  0  0
   14.6033   -0.2942    0.0000 H   0  0  0  0  0  0  0  0  0  0  0  0
   17.2129   -2.3955    0.0000 H   0  0  0  0  0  0  0  0  0  0  0  0
   17.9490   -0.6131    0.0000 H   0  0  0  0  0  0  0  0  0  0  0  0
   15.7838   -3.7276    0.0000 H   0  0  0  0  0  0  0  0  0  0  0  0
   14.3084   -3.0259    0.0000 H   0  0  0  0  0  0  0  0  0  0  0  0
   14.4619   -1.2480    0.0000 H   0  0  0  0  0  0  0  0  0  0  0  0
   19.6245    1.1227    0.0000 H   0  0  0  0  0  0  0  0  0  0  0  0
   21.3553    0.1058    0.0000 H   0  0  0  0  0  0  0  0  0  0  0  0
   21.8296   -0.9817    0.0000 H   0  0  0  0  0  0  0  0  0  0  0  0
   21.3973   -2.9420    0.0000 H   0  0  0  0  0  0  0  0  0  0  0  0
   20.5097   -3.7291    0.0000 H   0  0  0  0  0  0  0  0  0  0  0  0
   18.6655   -4.0233    0.0000 H   0  0  0  0  0  0  0  0  0  0  0  0
   16.6138   -1.8412    0.0000 H   0  0  0  0  0  0  0  0  0  0  0  0
   14.9812   -2.3635    0.0000 H   0  0  0  0  0  0  0  0  0  0  0  0
   16.8280   -5.2078    0.0000 H   0  0  0  0  0  0  0  0  0  0  0  0
   15.6618   -7.7743    0.0000 H   0  0  0  0  0  0  0  0  0  0  0  0
   16.7523   -6.1839    0.0000 H   0  0  0  0  0  0  0  0  0  0  0  0
   12.7851   -4.6329    0.0000 H   0  0  0  0  0  0  0  0  0  0  0  0
    9.9103   -6.2521    0.0000 H   0  0  0  0  0  0  0  0  0  0  0  0
    9.9139  -10.4170    0.0000 H   0  0  0  0  0  0  0  0  0  0  0  0
   12.3211  -10.6150    0.0000 H   0  0  0  0  0  0  0  0  0  0  0  0
   15.0273   -9.3204    0.0000 H   0  0  0  0  0  0  0  0  0  0  0  0
   13.8132   -7.7400    0.0000 H   0  0  0  0  0  0  0  0  0  0  0  0
   11.8850   -4.9949    0.0000 H   0  0  0  0  0  0  0  0  0  0  0  0
    8.8168   -6.0788    0.0000 H   0  0  0  0  0  0  0  0  0  0  0  0
    9.8419   -7.5395    0.0000 H   0  0  0  0  0  0  0  0  0  0  0  0
   12.4640   -3.6117    0.0000 H   0  0  0  0  0  0  0  0  0  0  0  0
   11.8397   -1.3703    0.0000 H   0  0  0  0  0  0  0  0  0  0  0  0
    8.7064   -0.3365    0.0000 H   0  0  0  0  0  0  0  0  0  0  0  0
    6.5713   -2.6585    0.0000 H   0  0  0  0  0  0  0  0  0  0  0  0
    7.4111   -5.3686    0.0000 H   0  0  0  0  0  0  0  0  0  0  0  0
    8.6409   -6.8967    0.0000 H   0  0  0  0  0  0  0  0  0  0  0  0
   10.4877   -9.7411    0.0000 H   0  0  0  0  0  0  0  0  0  0  0  0
    9.3215  -12.3076    0.0000 H   0  0  0  0  0  0  0  0  0  0  0  0
   10.4186  -10.9003    0.0000 H   0  0  0  0  0  0  0  0  0  0  0  0
    6.0730  -11.6554    0.0000 H   0  0  0  0  0  0  0  0  0  0  0  0
    6.5320  -10.4231    0.0000 H   0  0  0  0  0  0  0  0  0  0  0  0
    7.4729  -12.2733    0.0000 H   0  0  0  0  0  0  0  0  0  0  0  0
    5.7261   -9.5535    0.0000 H   0  0  0  0  0  0  0  0  0  0  0  0
    2.5120  -10.9761    0.0000 H   0  0  0  0  0  0  0  0  0  0  0  0
    3.6786  -12.1200    0.0000 H   0  0  0  0  0  0  0  0  0  0  0  0
    5.0376   -8.8784    0.0000 H   0  0  0  0  0  0  0  0  0  0  0  0
    1.5453   -7.4457    0.0000 H   0  0  0  0  0  0  0  0  0  0  0  0
    0.6280   -8.9763    0.0000 H   0  0  0  0  0  0  0  0  0  0  0  0
    1.8235  -10.3010    0.0000 H   0  0  0  0  0  0  0  0  0  0  0  0
    2.5650   -6.7165    0.0000 H   0  0  0  0  0  0  0  0  0  0  0  0
    4.3101   -6.3436    0.0000 H   0  0  0  0  0  0  0  0  0  0  0  0
    5.1422   -8.0832    0.0000 H   0  0  0  0  0  0  0  0  0  0  0  0
  1  2  1  0
  2  3  1  0
  3  4  2  0
  4  5  1  0
  5  6  2  0
  6  7  1  0
  7  8  2  0
  7  9  1  0
  9 10  1  0
 10 11  1  0
 11 12  2  0
  9 13  1  0
 13 14  1  0
 14 15  2  0
 15 16  1  0
 16 17  2  0
 17 18  1  0
 16 19  1  0
 14 20  1  0
 20 21  1  0
 21 22  2  0
 22 23  1  0
 23 24  2  0
 24 25  1  0
 25 26  2  0
 25 27  1  0
  1 28  2  0
  1 29  1  0
 29 30  1  0
 30 31  1  0
 31 32  1  0
 32 33  2  0
 32 34  1  0
 34 35  1  0
 35 36  1  0
 36 37  1  0
 35 38  1  0
 38 39  2  0
 38 40  1  0
 40 41  1  0
 41 42  1  0
 42 43  1  0
 41 44  1  0
 44 45  2  0
 44 46  1  0
 46 47  1  0
 47 48  1  0
 48 49  1  0
 47 50  1  0
 50 51  2  0
 50 52  1  0
 52 53  1  0
 53 54  1  0
 54 55  1  0
 55 56  2  0
 56 57  1  0
 57 58  2  0
 58 59  1  0
 59 60  2  0
 53 61  1  0
 61 62  2  0
 61 63  1  0
 63 64  1  0
 64 65  1  0
 65 66  1  0
 66 67  2  0
 67 68  1  0
 68 69  2  0
 69 70  1  0
 69 71  1  0
 71 72  2  0
 64 73  1  0
 73 74  2  0
 73 75  1  0
 76 75  1  6
 76 77  1  0
 77 78  1  0
 78 79  1  0
 79 80  1  0
 76 81  1  0
 76 82  1  0
 82 83  2  0
 82 84  1  0
 84 85  1  0
 85 86  1  0
 86 87  1  0
 87 88  2  0
 88 89  1  0
 89 90  2  0
 90 91  1  0
 90 92  1  0
 92 93  2  0
 85 94  1  0
 94 95  2  0
 94 96  1  0
 96 97  1  0
 97 98  1  0
 98 99  1  0
 99100  2  0
100101  1  0
101102  2  0
102103  1  0
103104  2  0
 97105  1  0
105106  2  0
105107  1  0
107108  1  0
108109  1  0
109110  1  0
110111  2  0
111112  1  0
112113  1  0
113114  2  0
108115  1  0
115116  2  0
115117  1  0
117118  1  0
118119  1  0
119120  1  0
120121  1  0
121122  1  0
118123  1  0
118124  1  6
124125  2  0
124126  1  0
126127  1  0
127128  1  0
128129  1  0
127130  1  0
130131  2  0
130132  1  0
132133  1  0
133134  1  0
134135  1  0
135136  1  0
136137  1  0
137138  2  0
137139  1  0
139140  1  0
140141  1  0
141142  1  0
142143  2  0
143144  1  0
144145  2  0
145146  1  0
145147  1  0
147148  2  0
140149  1  0
149150  2  0
149151  1  0
151152  1  0
152153  1  0
153154  1  0
154155  2  0
155156  1  0
156157  2  0
157158  1  0
158159  2  0
152160  1  0
160161  2  0
160162  1  0
162163  1  0
163164  1  0
164165  1  0
165166  1  0
166167  2  0
166168  1  0
163169  1  0
169170  2  0
169171  1  0
171172  1  0
172173  1  0
173174  1  0
174175  1  0
174176  1  0
172177  1  0
177178  2  0
177179  1  0
  8  3  1  0
 60 55  1  0
 72 66  1  0
 93 87  1  0
104 99  1  0
114110  1  0
136132  1  0
148142  1  0
159154  1  0
 11  6  1  0
 80122  2  0
 18 13  2  0
 22  9  1  0
 26 21  1  0
  2180  1  0
  4181  1  0
  5182  1  0
  8183  1  0
 15184  1  0
 17185  1  0
 18186  1  0
 19187  1  0
 23188  1  0
 24189  1  0
 26190  1  0
 27191  1  0
 29192  1  0
 30193  1  0
 30194  1  0
 31195  1  0
 31196  1  0
 34197  1  0
 35198  1  1
 36199  1  0
 36200  1  0
 37201  1  0
 40202  1  0
 41203  1  6
 42204  1  0
 42205  1  0
 43206  1  0
 46207  1  0
 47208  1  1
 48209  1  0
 48210  1  0
 49211  1  0
 49212  1  0
 49213  1  0
 52214  1  0
 53215  1  6
 54216  1  0
 54217  1  0
 56218  1  0
 57219  1  0
 58220  1  0
 59221  1  0
 60222  1  0
 63223  1  0
 64224  1  1
 65225  1  0
 65226  1  0
 67227  1  0
 68228  1  0
 70229  1  0
 71230  1  0
 72231  1  0
 75232  1  0
 77233  1  0
 77234  1  0
 78235  1  0
 78236  1  0
 79237  1  0
 79238  1  0
 80239  1  0
 81240  1  0
 81241  1  0
 81242  1  0
 84243  1  0
 85244  1  1
 86245  1  0
 86246  1  0
 88247  1  0
 89248  1  0
 91249  1  0
 92250  1  0
 93251  1  0
 96252  1  0
 97253  1  1
 98254  1  0
 98255  1  0
100256  1  0
101257  1  0
102258  1  0
103259  1  0
104260  1  0
107261  1  0
108262  1  1
109263  1  0
109264  1  0
111265  1  0
112266  1  0
113267  1  0
117268  1  0
119269  1  0
119270  1  0
120271  1  0
120272  1  0
121273  1  0
121274  1  0
122275  1  0
123276  1  0
123277  1  0
123278  1  0
126279  1  0
127280  1  6
128281  1  0
128282  1  0
129283  1  0
129284  1  0
129285  1  0
133286  1  0
133287  1  0
134288  1  0
134289  1  0
135290  1  0
135291  1  0
136292  1  0
139293  1  0
140294  1  1
141295  1  0
141296  1  0
143297  1  0
144298  1  0
146299  1  0
147300  1  0
148301  1  0
151302  1  0
152303  1  6
153304  1  0
153305  1  0
155306  1  0
156307  1  0
157308  1  0
158309  1  0
159310  1  0
162311  1  0
163312  1  1
164313  1  0
164314  1  0
165315  1  0
165316  1  0
171317  1  0
172318  1  6
173319  1  0
173320  1  0
174321  1  0
175322  1  0
175323  1  0
175324  1  0
176325  1  0
176326  1  0
176327  1  0
M  CHG  2 168  -1 179  -1
M  END
