
     RDKit          2D

316324  0  0  0  0  0  0  0  0999 V2000
  -31.7417    0.2117    0.0000 C   0  0  0  0  0  0  0  0  0  0  0  0
  -33.0143   -0.5824    0.0000 N   0  0  0  0  0  0  0  0  0  0  0  0
  -34.3383    0.1227    0.0000 C   0  0  0  0  0  0  0  0  0  0  0  0
  -34.3896    1.6219    0.0000 C   0  0  0  0  0  0  0  0  0  0  0  0
  -35.7136    2.3270    0.0000 C   0  0  0  0  0  0  0  0  0  0  0  0
  -36.9862    1.5329    0.0000 C   0  0  0  0  0  0  0  0  0  0  0  0
  -36.9348    0.0338    0.0000 C   0  0  0  0  0  0  0  0  0  0  0  0
  -35.6109   -0.6713    0.0000 C   0  0  0  0  0  0  0  0  0  0  0  0
  -38.3447   -0.4783    0.0000 C   0  0  0  0  0  0  0  0  0  0  0  0
  -39.2674    0.7044    0.0000 O   0  0  0  0  0  0  0  0  0  0  0  0
  -38.4278    1.9474    0.0000 C   0  0  0  0  0  0  0  0  0  0  0  0
  -38.9399    3.3572    0.0000 O   0  0  0  0  0  0  0  0  0  0  0  0
  -39.8004   -0.8402    0.0000 C   0  0  0  0  0  0  0  0  0  0  0  0
  -40.2148   -2.2818    0.0000 C   0  0  0  0  0  0  0  0  0  0  0  0
  -41.6705   -2.6437    0.0000 C   0  0  0  0  0  0  0  0  0  0  0  0
  -42.7118   -1.5640    0.0000 C   0  0  0  0  0  0  0  0  0  0  0  0
  -42.2974   -0.1224    0.0000 C   0  0  0  0  0  0  0  0  0  0  0  0
  -40.8417    0.2395    0.0000 C   0  0  0  0  0  0  0  0  0  0  0  0
  -44.1675   -1.9259    0.0000 O   0  0  0  0  0  0  0  0  0  0  0  0
  -39.1736   -3.3615    0.0000 O   0  0  0  0  0  0  0  0  0  0  0  0
  -37.7179   -2.9996    0.0000 C   0  0  0  0  0  0  0  0  0  0  0  0
  -37.3035   -1.5580    0.0000 C   0  0  0  0  0  0  0  0  0  0  0  0
  -36.0412   -1.8688    0.0000 C   0  0  0  0  0  0  0  0  0  0  0  0
  -35.4858   -2.4447    0.0000 C   0  0  0  0  0  0  0  0  0  0  0  0
  -35.7069   -3.2135    0.0000 C   0  0  0  0  0  0  0  0  0  0  0  0
  -36.4832   -3.4066    0.0000 C   0  0  0  0  0  0  0  0  0  0  0  0
  -34.1797   -4.7971    0.0000 O   0  0  0  0  0  0  0  0  0  0  0  0
  -31.7931    1.7108    0.0000 S   0  0  0  0  0  0  0  0  0  0  0  0
  -30.4178   -0.4934    0.0000 N   0  0  0  0  0  0  0  0  0  0  0  0
  -29.1452    0.3006    0.0000 C   0  0  0  0  0  0  0  0  0  0  0  0
  -27.8212   -0.4045    0.0000 C   0  0  0  0  0  0  0  0  0  0  0  0
  -26.5486    0.3895    0.0000 C   0  0  0  0  0  0  0  0  0  0  0  0
  -26.6000    1.8887    0.0000 O   0  0  0  0  0  0  0  0  0  0  0  0
  -25.2247   -0.3156    0.0000 N   0  0  0  0  0  0  0  0  0  0  0  0
  -23.9521    0.4785    0.0000 C   0  0  0  0  0  0  0  0  0  0  0  0
  -23.0278    1.6599    0.0000 C   0  0  0  0  0  0  0  0  0  0  0  0
  -21.5425    1.4501    0.0000 C   0  0  0  0  0  0  0  0  0  0  0  0
  -20.6183    2.6315    0.0000 C   0  0  0  0  0  0  0  0  0  0  0  0
  -20.2186    0.7450    0.0000 C   0  0  0  0  0  0  0  0  0  0  0  0
  -22.6281   -0.2266    0.0000 C   0  0  0  0  0  0  0  0  0  0  0  0
  -22.5768   -1.7257    0.0000 O   0  0  0  0  0  0  0  0  0  0  0  0
  -21.3555    0.5674    0.0000 N   0  0  0  0  0  0  0  0  0  0  0  0
  -20.0316   -0.1377    0.0000 C   0  0  0  0  0  0  0  0  0  0  0  0
  -19.0286   -1.2531    0.0000 C   0  0  0  0  0  0  0  0  0  0  0  0
  -19.4931   -2.6794    0.0000 O   0  0  0  0  0  0  0  0  0  0  0  0
  -18.7590    0.6563    0.0000 C   0  0  0  0  0  0  0  0  0  0  0  0
  -18.6272    2.1505    0.0000 O   0  0  0  0  0  0  0  0  0  0  0  0
  -17.4350   -0.0488    0.0000 N   0  0  0  0  0  0  0  0  0  0  0  0
  -16.1624    0.7453    0.0000 C   0  0  0  0  0  0  0  0  0  0  0  0
  -15.2381    1.9267    0.0000 C   0  0  0  0  0  0  0  0  0  0  0  0
  -13.7529    1.7169    0.0000 C   0  0  0  0  0  0  0  0  0  0  0  0
  -12.8286    2.8983    0.0000 C   0  0  0  0  0  0  0  0  0  0  0  0
  -11.3288    2.8712    0.0000 N   0  0  0  0  0  0  0  0  0  0  0  0
  -13.3896    4.2895    0.0000 O   0  0  0  0  0  0  0  0  0  0  0  0
  -14.8385    0.0402    0.0000 C   0  0  0  0  0  0  0  0  0  0  0  0
  -14.7871   -1.4589    0.0000 O   0  0  0  0  0  0  0  0  0  0  0  0
  -13.5659    0.8342    0.0000 N   0  0  0  0  0  0  0  0  0  0  0  0
  -12.2419    0.1291    0.0000 C   0  0  0  0  0  0  0  0  0  0  0  0
  -11.2390   -0.9863    0.0000 C   0  0  0  0  0  0  0  0  0  0  0  0
  -11.7034   -2.4126    0.0000 C   0  0  0  0  0  0  0  0  0  0  0  0
  -10.7005   -3.5279    0.0000 C   0  0  0  0  0  0  0  0  0  0  0  0
  -11.1650   -4.9542    0.0000 O   0  0  0  0  0  0  0  0  0  0  0  0
   -9.2331   -3.2171    0.0000 O   0  0  0  0  0  0  0  0  0  0  0  0
  -10.9693    0.9231    0.0000 C   0  0  0  0  0  0  0  0  0  0  0  0
  -10.8732    2.0124    0.0000 O   0  0  0  0  0  0  0  0  0  0  0  0
   -9.6454    0.2180    0.0000 N   0  0  0  0  0  0  0  0  0  0  0  0
   -8.3728    1.0121    0.0000 C   0  0  0  0  0  0  0  0  0  0  0  0
   -7.4485    2.1935    0.0000 C   0  0  0  0  0  0  0  0  0  0  0  0
   -6.9840    3.6197    0.0000 O   0  0  0  0  0  0  0  0  0  0  0  0
   -5.9487    2.1663    0.0000 C   0  0  0  0  0  0  0  0  0  0  0  0
   -7.0488    0.3070    0.0000 C   0  0  0  0  0  0  0  0  0  0  0  0
   -7.1806   -1.1872    0.0000 O   0  0  0  0  0  0  0  0  0  0  0  0
   -5.7762    1.1010    0.0000 N   0  0  0  0  0  0  0  0  0  0  0  0
   -4.4523    0.3959    0.0000 C   0  0  0  0  0  0  0  0  0  0  0  0
   -3.4493   -0.7195    0.0000 C   0  0  0  0  0  0  0  0  0  0  0  0
   -3.9138   -2.1458    0.0000 C   0  0  0  0  0  0  0  0  0  0  0  0
   -5.3812   -2.4566    0.0000 C   0  0  0  0  0  0  0  0  0  0  0  0
   -5.8457   -3.8829    0.0000 C   0  0  0  0  0  0  0  0  0  0  0  0
   -4.8427   -4.9983    0.0000 C   0  0  0  0  0  0  0  0  0  0  0  0
   -3.3753   -4.6874    0.0000 C   0  0  0  0  0  0  0  0  0  0  0  0
   -2.9108   -3.2611    0.0000 C   0  0  0  0  0  0  0  0  0  0  0  0
   -3.1797    1.1899    0.0000 C   0  0  0  0  0  0  0  0  0  0  0  0
   -3.2310    2.6891    0.0000 O   0  0  0  0  0  0  0  0  0  0  0  0
   -1.8557    0.4848    0.0000 N   0  0  0  0  0  0  0  0  0  0  0  0
   -0.5831    1.2789    0.0000 C   0  0  0  0  0  0  0  0  0  0  0  0
    0.3412    2.4603    0.0000 C   0  0  0  0  0  0  0  0  0  0  0  0
    1.8029    2.7968    0.0000 O   0  0  0  0  0  0  0  0  0  0  0  0
    0.7409    0.5738    0.0000 C   0  0  0  0  0  0  0  0  0  0  0  0
    0.7922   -0.9254    0.0000 O   0  0  0  0  0  0  0  0  0  0  0  0
    2.0135    1.3678    0.0000 N   0  0  0  0  0  0  0  0  0  0  0  0
    3.3374    0.6627    0.0000 C   0  0  0  0  0  0  0  0  0  0  0  0
    4.3404   -0.4527    0.0000 C   0  0  0  0  0  0  0  0  0  0  0  0
    3.8759   -1.8790    0.0000 C   0  0  0  0  0  0  0  0  0  0  0  0
    4.8788   -2.9944    0.0000 O   0  0  0  0  0  0  0  0  0  0  0  0
    2.4084   -2.1898    0.0000 O   0  0  0  0  0  0  0  0  0  0  0  0
    4.6100    1.4567    0.0000 C   0  0  0  0  0  0  0  0  0  0  0  0
    4.5587    2.9558    0.0000 O   0  0  0  0  0  0  0  0  0  0  0  0
    5.9340    0.7516    0.0000 N   0  0  0  0  0  0  0  0  0  0  0  0
    7.2066    1.5457    0.0000 C   0  0  0  0  0  0  0  0  0  0  0  0
    8.1308    2.7271    0.0000 C   0  0  0  0  0  0  0  0  0  0  0  0
    9.6161    2.5173    0.0000 C   0  0  0  0  0  0  0  0  0  0  0  0
   10.5404    3.6987    0.0000 C   0  0  0  0  0  0  0  0  0  0  0  0
   10.9401    1.8122    0.0000 C   0  0  0  0  0  0  0  0  0  0  0  0
    8.5305    0.8406    0.0000 C   0  0  0  0  0  0  0  0  0  0  0  0
    8.3987   -0.6536    0.0000 O   0  0  0  0  0  0  0  0  0  0  0  0
    9.8031    1.6346    0.0000 N   0  0  0  0  0  0  0  0  0  0  0  0
   11.1271    0.9295    0.0000 C   0  0  0  0  0  0  0  0  0  0  0  0
   12.1300   -0.1859    0.0000 C   0  0  0  0  0  0  0  0  0  0  0  0
   11.6655   -1.6122    0.0000 C   0  0  0  0  0  0  0  0  0  0  0  0
   10.2386   -2.0747    0.0000 C   0  0  0  0  0  0  0  0  0  0  0  0
   10.2376   -3.5747    0.0000 N   0  0  0  0  0  0  0  0  0  0  0  0
   11.6639   -4.0392    0.0000 C   0  0  0  0  0  0  0  0  0  0  0  0
   12.2731   -5.4099    0.0000 C   0  0  0  0  0  0  0  0  0  0  0  0
   13.7648   -5.5677    0.0000 C   0  0  0  0  0  0  0  0  0  0  0  0
   14.6473   -4.3548    0.0000 C   0  0  0  0  0  0  0  0  0  0  0  0
   14.0381   -2.9841    0.0000 C   0  0  0  0  0  0  0  0  0  0  0  0
   12.5464   -2.8263    0.0000 C   0  0  0  0  0  0  0  0  0  0  0  0
   12.3997    1.7235    0.0000 C   0  0  0  0  0  0  0  0  0  0  0  0
   12.5314    3.2177    0.0000 O   0  0  0  0  0  0  0  0  0  0  0  0
   13.7236    1.0184    0.0000 N   0  0  0  0  0  0  0  0  0  0  0  0
   14.9962    1.8125    0.0000 C   0  0  0  0  0  0  0  0  0  0  0  0
   15.9205    2.9939    0.0000 C   0  0  0  0  0  0  0  0  0  0  0  0
   17.4058    2.7841    0.0000 C   0  0  0  0  0  0  0  0  0  0  0  0
   18.3301    3.9655    0.0000 C   0  0  0  0  0  0  0  0  0  0  0  0
   19.8153    3.7557    0.0000 C   0  0  0  0  0  0  0  0  0  0  0  0
   20.7396    4.9371    0.0000 N   0  0  0  0  0  0  0  0  0  0  0  0
   16.3202    1.1074    0.0000 C   0  0  0  0  0  0  0  0  0  0  0  0
   16.3715   -0.3918    0.0000 O   0  0  0  0  0  0  0  0  0  0  0  0
   17.5928    1.9014    0.0000 N   0  0  0  0  0  0  0  0  0  0  0  0
   18.9167    1.1963    0.0000 C   0  0  0  0  0  0  0  0  0  0  0  0
   19.9197    0.0809    0.0000 C   0  0  0  0  0  0  0  0  0  0  0  0
   19.4552   -1.3454    0.0000 C   0  0  0  0  0  0  0  0  0  0  0  0
   20.4581   -2.4608    0.0000 C   0  0  0  0  0  0  0  0  0  0  0  0
   18.5309   -2.5268    0.0000 C   0  0  0  0  0  0  0  0  0  0  0  0
   20.1893    1.9903    0.0000 C   0  0  0  0  0  0  0  0  0  0  0  0
   20.4428    3.1786    0.0000 O   0  0  0  0  0  0  0  0  0  0  0  0
   21.5133    1.2852    0.0000 N   0  0  0  0  0  0  0  0  0  0  0  0
   22.7859    2.0793    0.0000 C   0  0  0  0  0  0  0  0  0  0  0  0
   23.7102    3.2606    0.0000 C   0  0  0  0  0  0  0  0  0  0  0  0
   25.1954    3.0509    0.0000 C   0  0  0  0  0  0  0  0  0  0  0  0
   26.1197    4.2323    0.0000 C   0  0  0  0  0  0  0  0  0  0  0  0
   26.5194    2.3458    0.0000 C   0  0  0  0  0  0  0  0  0  0  0  0
   24.1098    1.3742    0.0000 C   0  0  0  0  0  0  0  0  0  0  0  0
   24.1612   -0.1250    0.0000 O   0  0  0  0  0  0  0  0  0  0  0  0
   25.3824    2.1682    0.0000 N   0  0  0  0  0  0  0  0  0  0  0  0
   25.4881    3.6645    0.0000 C   0  0  0  0  0  0  0  0  0  0  0  0
   26.9438    4.0264    0.0000 C   0  0  0  0  0  0  0  0  0  0  0  0
   27.7378    2.7538    0.0000 C   0  0  0  0  0  0  0  0  0  0  0  0
   26.7728    1.6053    0.0000 C   0  0  0  0  0  0  0  0  0  0  0  0
   28.0158    0.7657    0.0000 C   0  0  0  0  0  0  0  0  0  0  0  0
   29.4345    1.2531    0.0000 O   0  0  0  0  0  0  0  0  0  0  0  0
   27.9102   -0.7306    0.0000 N   0  0  0  0  0  0  0  0  0  0  0  0
   29.1532   -1.5702    0.0000 C   0  0  0  0  0  0  0  0  0  0  0  0
   30.6084   -1.9340    0.0000 C   0  0  0  0  0  0  0  0  0  0  0  0
   31.0209   -3.3762    0.0000 C   0  0  0  0  0  0  0  0  0  0  0  0
   32.4761   -3.7401    0.0000 C   0  0  0  0  0  0  0  0  0  0  0  0
   33.0613   -5.1212    0.0000 O   0  0  0  0  0  0  0  0  0  0  0  0
   33.5188   -2.6618    0.0000 O   0  0  0  0  0  0  0  0  0  0  0  0
   29.0476   -3.0665    0.0000 C   0  0  0  0  0  0  0  0  0  0  0  0
   27.6989   -3.7231    0.0000 O   0  0  0  0  0  0  0  0  0  0  0  0
   30.2905   -3.9061    0.0000 N   0  0  0  0  0  0  0  0  0  0  0  0
   30.1849   -5.4024    0.0000 C   0  0  0  0  0  0  0  0  0  0  0  0
   29.5739   -6.7723    0.0000 C   0  0  0  0  0  0  0  0  0  0  0  0
   28.0820   -6.9281    0.0000 C   0  0  0  0  0  0  0  0  0  0  0  0
   27.4710   -8.2980    0.0000 N   0  0  0  0  0  0  0  0  0  0  0  0
   27.2011   -5.7139    0.0000 O   0  0  0  0  0  0  0  0  0  0  0  0
   31.4279   -6.2420    0.0000 C   0  0  0  0  0  0  0  0  0  0  0  0
   31.5054   -7.7400    0.0000 O   0  0  0  0  0  0  0  0  0  0  0  0
   32.8465   -5.7546    0.0000 O   0  0  0  0  0  0  0  0  0  0  0  0
  -32.7806   -2.0640    0.0000 H   0  0  0  0  0  0  0  0  0  0  0  0
  -33.1170    2.4159    0.0000 H   0  0  0  0  0  0  0  0  0  0  0  0
  -35.7649    3.8261    0.0000 H   0  0  0  0  0  0  0  0  0  0  0  0
  -35.1983   -2.1134    0.0000 H   0  0  0  0  0  0  0  0  0  0  0  0
  -42.0849   -4.0853    0.0000 H   0  0  0  0  0  0  0  0  0  0  0  0
  -43.3386    0.9573    0.0000 H   0  0  0  0  0  0  0  0  0  0  0  0
  -40.4273    1.6811    0.0000 H   0  0  0  0  0  0  0  0  0  0  0  0
  -45.2087   -0.8462    0.0000 H   0  0  0  0  0  0  0  0  0  0  0  0
  -35.4334    0.2455    0.0000 H   0  0  0  0  0  0  0  0  0  0  0  0
  -33.3176   -2.0940    0.0000 H   0  0  0  0  0  0  0  0  0  0  0  0
  -37.0910   -5.5209    0.0000 H   0  0  0  0  0  0  0  0  0  0  0  0
  -34.5941   -6.2387    0.0000 H   0  0  0  0  0  0  0  0  0  0  0  0
  -30.3664   -1.9925    0.0000 H   0  0  0  0  0  0  0  0  0  0  0  0
  -28.2209    1.4820    0.0000 H   0  0  0  0  0  0  0  0  0  0  0  0
  -30.1481    1.4160    0.0000 H   0  0  0  0  0  0  0  0  0  0  0  0
  -26.8183   -1.5199    0.0000 H   0  0  0  0  0  0  0  0  0  0  0  0
  -28.7455   -1.5859    0.0000 H   0  0  0  0  0  0  0  0  0  0  0  0
  -25.1733   -1.8147    0.0000 H   0  0  0  0  0  0  0  0  0  0  0  0
  -24.9550    1.5939    0.0000 H   0  0  0  0  0  0  0  0  0  0  0  0
  -22.7406    3.1321    0.0000 H   0  0  0  0  0  0  0  0  0  0  0  0
  -24.3517    2.3650    0.0000 H   0  0  0  0  0  0  0  0  0  0  0  0
  -21.2829   -0.0272    0.0000 H   0  0  0  0  0  0  0  0  0  0  0  0
  -19.1264    2.7874    0.0000 H   0  0  0  0  0  0  0  0  0  0  0  0
  -20.1538    4.0578    0.0000 H   0  0  0  0  0  0  0  0  0  0  0  0
  -21.8464    3.4927    0.0000 H   0  0  0  0  0  0  0  0  0  0  0  0
  -19.8060   -0.6971    0.0000 H   0  0  0  0  0  0  0  0  0  0  0  0
  -18.7568    1.0816    0.0000 H   0  0  0  0  0  0  0  0  0  0  0  0
  -19.5837    2.1040    0.0000 H   0  0  0  0  0  0  0  0  0  0  0  0
  -21.0426    2.0344    0.0000 H   0  0  0  0  0  0  0  0  0  0  0  0
  -20.9559   -1.3191    0.0000 H   0  0  0  0  0  0  0  0  0  0  0  0
  -17.8005   -2.1143    0.0000 H   0  0  0  0  0  0  0  0  0  0  0  0
  -17.7423   -0.4815    0.0000 H   0  0  0  0  0  0  0  0  0  0  0  0
  -18.4902   -3.7947    0.0000 H   0  0  0  0  0  0  0  0  0  0  0  0
  -17.2013   -1.5304    0.0000 H   0  0  0  0  0  0  0  0  0  0  0  0
  -17.1654    1.8607    0.0000 H   0  0  0  0  0  0  0  0  0  0  0  0
  -14.7737    3.3529    0.0000 H   0  0  0  0  0  0  0  0  0  0  0  0
  -16.5621    2.6318    0.0000 H   0  0  0  0  0  0  0  0  0  0  0  0
  -12.4289    1.0118    0.0000 H   0  0  0  0  0  0  0  0  0  0  0  0
  -13.4932    0.2396    0.0000 H   0  0  0  0  0  0  0  0  0  0  0  0
  -10.4190    3.8700    0.0000 H   0  0  0  0  0  0  0  0  0  0  0  0
  -10.4178    1.4764    0.0000 H   0  0  0  0  0  0  0  0  0  0  0  0
  -13.2529    2.3012    0.0000 H   0  0  0  0  0  0  0  0  0  0  0  0
  -13.3033   -0.9308    0.0000 H   0  0  0  0  0  0  0  0  0  0  0  0
  -10.0108   -1.8475    0.0000 H   0  0  0  0  0  0  0  0  0  0  0  0
  -10.0563   -0.0636    0.0000 H   0  0  0  0  0  0  0  0  0  0  0  0
  -12.6277   -3.5940    0.0000 H   0  0  0  0  0  0  0  0  0  0  0  0
  -13.1035   -1.8741    0.0000 H   0  0  0  0  0  0  0  0  0  0  0  0
   -9.4117   -1.2636    0.0000 H   0  0  0  0  0  0  0  0  0  0  0  0
   -9.3757    2.1275    0.0000 H   0  0  0  0  0  0  0  0  0  0  0  0
   -8.7724    2.8986    0.0000 H   0  0  0  0  0  0  0  0  0  0  0  0
   -5.5654    4.1072    0.0000 H   0  0  0  0  0  0  0  0  0  0  0  0
   -4.9018    3.0436    0.0000 H   0  0  0  0  0  0  0  0  0  0  0  0
   -4.6393    1.2786    0.0000 H   0  0  0  0  0  0  0  0  0  0  0  0
   -5.7036    0.5063    0.0000 H   0  0  0  0  0  0  0  0  0  0  0  0
   -5.6444    2.5952    0.0000 H   0  0  0  0  0  0  0  0  0  0  0  0
   -5.3765   -0.7855    0.0000 H   0  0  0  0  0  0  0  0  0  0  0  0
   -2.2212   -1.5807    0.0000 H   0  0  0  0  0  0  0  0  0  0  0  0
   -2.2666    0.2031    0.0000 H   0  0  0  0  0  0  0  0  0  0  0  0
   -6.5126   -1.4718    0.0000 H   0  0  0  0  0  0  0  0  0  0  0  0
   -7.3131   -4.1938    0.0000 H   0  0  0  0  0  0  0  0  0  0  0  0
   -5.3072   -6.4246    0.0000 H   0  0  0  0  0  0  0  0  0  0  0  0
   -2.3724   -5.8028    0.0000 H   0  0  0  0  0  0  0  0  0  0  0  0
   -1.4434   -2.9503    0.0000 H   0  0  0  0  0  0  0  0  0  0  0  0
   -1.6220   -0.9968    0.0000 H   0  0  0  0  0  0  0  0  0  0  0  0
   -1.5860    2.3943    0.0000 H   0  0  0  0  0  0  0  0  0  0  0  0
    0.8057    3.8865    0.0000 H   0  0  0  0  0  0  0  0  0  0  0  0
   -0.9828    3.1654    0.0000 H   0  0  0  0  0  0  0  0  0  0  0  0
    2.7507    3.4319    0.0000 H   0  0  0  0  0  0  0  0  0  0  0  0
    2.1452    2.8620    0.0000 H   0  0  0  0  0  0  0  0  0  0  0  0
    2.4131   -0.5187    0.0000 H   0  0  0  0  0  0  0  0  0  0  0  0
    5.5685   -1.3139    0.0000 H   0  0  0  0  0  0  0  0  0  0  0  0
    5.5230    0.4699    0.0000 H   0  0  0  0  0  0  0  0  0  0  0  0
    6.1677   -0.7301    0.0000 H   0  0  0  0  0  0  0  0  0  0  0  0
    6.2036    2.6610    0.0000 H   0  0  0  0  0  0  0  0  0  0  0  0
    8.4180    4.1993    0.0000 H   0  0  0  0  0  0  0  0  0  0  0  0
    6.8069    3.4321    0.0000 H   0  0  0  0  0  0  0  0  0  0  0  0
    9.8758    1.0399    0.0000 H   0  0  0  0  0  0  0  0  0  0  0  0
   12.0323    3.8546    0.0000 H   0  0  0  0  0  0  0  0  0  0  0  0
   11.0049    5.1250    0.0000 H   0  0  0  0  0  0  0  0  0  0  0  0
    9.3123    4.5599    0.0000 H   0  0  0  0  0  0  0  0  0  0  0  0
   11.3526    0.3701    0.0000 H   0  0  0  0  0  0  0  0  0  0  0  0
   12.4018    2.1488    0.0000 H   0  0  0  0  0  0  0  0  0  0  0  0
   11.5749    3.1712    0.0000 H   0  0  0  0  0  0  0  0  0  0  0  0
   10.1160    3.1016    0.0000 H   0  0  0  0  0  0  0  0  0  0  0  0
   10.2028   -0.2519    0.0000 H   0  0  0  0  0  0  0  0  0  0  0  0
   13.3581   -1.0471    0.0000 H   0  0  0  0  0  0  0  0  0  0  0  0
   13.4163    0.5857    0.0000 H   0  0  0  0  0  0  0  0  0  0  0  0
    8.9272   -1.3467    0.0000 H   0  0  0  0  0  0  0  0  0  0  0  0
    9.0235   -4.4556    0.0000 H   0  0  0  0  0  0  0  0  0  0  0  0
   11.3906   -6.6229    0.0000 H   0  0  0  0  0  0  0  0  0  0  0  0
   14.3740   -6.9385    0.0000 H   0  0  0  0  0  0  0  0  0  0  0  0
   16.1389   -4.5126    0.0000 H   0  0  0  0  0  0  0  0  0  0  0  0
   14.9206   -1.7711    0.0000 H   0  0  0  0  0  0  0  0  0  0  0  0
   13.9573   -0.4633    0.0000 H   0  0  0  0  0  0  0  0  0  0  0  0
   13.9933    2.9278    0.0000 H   0  0  0  0  0  0  0  0  0  0  0  0
   16.2077    4.4661    0.0000 H   0  0  0  0  0  0  0  0  0  0  0  0
   14.5966    3.6989    0.0000 H   0  0  0  0  0  0  0  0  0  0  0  0
   18.6339    1.9229    0.0000 H   0  0  0  0  0  0  0  0  0  0  0  0
   17.6654    1.3067    0.0000 H   0  0  0  0  0  0  0  0  0  0  0  0
   18.6172    5.4378    0.0000 H   0  0  0  0  0  0  0  0  0  0  0  0
   17.1019    4.8267    0.0000 H   0  0  0  0  0  0  0  0  0  0  0  0
   21.2153    3.2173    0.0000 H   0  0  0  0  0  0  0  0  0  0  0  0
   19.5282    2.2835    0.0000 H   0  0  0  0  0  0  0  0  0  0  0  0
   22.1882    4.5479    0.0000 H   0  0  0  0  0  0  0  0  0  0  0  0
   21.2041    6.3634    0.0000 H   0  0  0  0  0  0  0  0  0  0  0  0
   19.5115    5.7984    0.0000 H   0  0  0  0  0  0  0  0  0  0  0  0
   17.9057    3.3684    0.0000 H   0  0  0  0  0  0  0  0  0  0  0  0
   17.8553    0.1364    0.0000 H   0  0  0  0  0  0  0  0  0  0  0  0
   21.2436   -0.6242    0.0000 H   0  0  0  0  0  0  0  0  0  0  0  0
   21.1024    1.0035    0.0000 H   0  0  0  0  0  0  0  0  0  0  0  0
   18.0552   -0.8069    0.0000 H   0  0  0  0  0  0  0  0  0  0  0  0
   20.1710   -3.9330    0.0000 H   0  0  0  0  0  0  0  0  0  0  0  0
   21.7821   -3.1659    0.0000 H   0  0  0  0  0  0  0  0  0  0  0  0
   21.5195   -1.4008    0.0000 H   0  0  0  0  0  0  0  0  0  0  0  0
   18.9181   -3.9759    0.0000 H   0  0  0  0  0  0  0  0  0  0  0  0
   17.2583   -3.3208    0.0000 H   0  0  0  0  0  0  0  0  0  0  0  0
   17.5280   -1.4114    0.0000 H   0  0  0  0  0  0  0  0  0  0  0  0
   21.7470   -0.1965    0.0000 H   0  0  0  0  0  0  0  0  0  0  0  0
   21.9264    3.3086    0.0000 H   0  0  0  0  0  0  0  0  0  0  0  0
   23.9973    4.7329    0.0000 H   0  0  0  0  0  0  0  0  0  0  0  0
   22.3101    3.7991    0.0000 H   0  0  0  0  0  0  0  0  0  0  0  0
   25.4551    1.5735    0.0000 H   0  0  0  0  0  0  0  0  0  0  0  0
   27.5815    4.5689    0.0000 H   0  0  0  0  0  0  0  0  0  0  0  0
   26.4069    5.7045    0.0000 H   0  0  0  0  0  0  0  0  0  0  0  0
   25.0057    5.2368    0.0000 H   0  0  0  0  0  0  0  0  0  0  0  0
   26.7531    0.8641    0.0000 H   0  0  0  0  0  0  0  0  0  0  0  0
   28.0191    2.3187    0.0000 H   0  0  0  0  0  0  0  0  0  0  0  0
   27.4642    3.5108    0.0000 H   0  0  0  0  0  0  0  0  0  0  0  0
   24.0211    3.9774    0.0000 H   0  0  0  0  0  0  0  0  0  0  0  0
   25.1008    5.1136    0.0000 H   0  0  0  0  0  0  0  0  0  0  0  0
   26.6074    5.4882    0.0000 H   0  0  0  0  0  0  0  0  0  0  0  0
   28.2924    4.6830    0.0000 H   0  0  0  0  0  0  0  0  0  0  0  0
   28.9204    3.6765    0.0000 H   0  0  0  0  0  0  0  0  0  0  0  0
   29.0094    1.9581    0.0000 H   0  0  0  0  0  0  0  0  0  0  0  0
   26.2344    0.2053    0.0000 H   0  0  0  0  0  0  0  0  0  0  0  0
   26.5616   -1.3872    0.0000 H   0  0  0  0  0  0  0  0  0  0  0  0
   29.7642   -0.2003    0.0000 H   0  0  0  0  0  0  0  0  0  0  0  0
   32.1003   -1.7782    0.0000 H   0  0  0  0  0  0  0  0  0  0  0  0
   30.7140   -0.4378    0.0000 H   0  0  0  0  0  0  0  0  0  0  0  0
   30.9152   -4.8725    0.0000 H   0  0  0  0  0  0  0  0  0  0  0  0
   29.7769   -4.2143    0.0000 H   0  0  0  0  0  0  0  0  0  0  0  0
   31.7580   -3.5953    0.0000 H   0  0  0  0  0  0  0  0  0  0  0  0
   28.7297   -5.0385    0.0000 H   0  0  0  0  0  0  0  0  0  0  0  0
   29.4683   -8.2685    0.0000 H   0  0  0  0  0  0  0  0  0  0  0  0
   30.9739   -7.3108    0.0000 H   0  0  0  0  0  0  0  0  0  0  0  0
   25.9791   -8.4538    0.0000 H   0  0  0  0  0  0  0  0  0  0  0  0
   28.3518   -9.5121    0.0000 H   0  0  0  0  0  0  0  0  0  0  0  0
  1  2  1  0
  2  3  1  0
  3  4  2  0
  4  5  1  0
  5  6  2  0
  6  7  1  0
  7  8  2  0
  7  9  1  0
  9 10  1  0
 10 11  1  0
 11 12  2  0
  9 13  1  0
 13 14  1  0
 14 15  2  0
 15 16  1  0
 16 17  2  0
 17 18  1  0
 16 19  1  0
 14 20  1  0
 20 21  1  0
 21 22  2  0
 22 23  1  0
 23 24  2  0
 24 25  1  0
 25 26  2  0
 25 27  1  0
  1 28  2  0
  1 29  1  0
 29 30  1  0
 30 31  1  0
 31 32  1  0
 32 33  2  0
 32 34  1  0
 34 35  1  0
 35 36  1  0
 36 37  1  0
 37 38  1  0
 37 39  1  0
 35 40  1  0
 40 41  2  0
 40 42  1  0
 42 43  1  0
 43 44  1  0
 44 45  1  0
 43 46  1  0
 46 47  2  0
 46 48  1  0
 48 49  1  0
 49 50  1  0
 50 51  1  0
 51 52  1  0
 52 53  1  0
 52 54  2  0
 49 55  1  0
 55 56  2  0
 55 57  1  0
 57 58  1  0
 58 59  1  0
 59 60  1  0
 60 61  1  0
 61 62  2  0
 61 63  1  0
 58 64  1  0
 64 65  2  0
 64 66  1  0
 66 67  1  0
 67 68  1  0
 68 69  1  0
 68 70  1  0
 67 71  1  0
 71 72  2  0
 71 73  1  0
 73 74  1  0
 74 75  1  0
 75 76  1  0
 76 77  2  0
 77 78  1  0
 78 79  2  0
 79 80  1  0
 80 81  2  0
 74 82  1  0
 82 83  2  0
 82 84  1  0
 84 85  1  0
 85 86  1  0
 86 87  1  0
 85 88  1  0
 88 89  2  0
 88 90  1  0
 90 91  1  0
 91 92  1  0
 92 93  1  0
 93 94  2  0
 93 95  1  0
 91 96  1  0
 96 97  2  0
 96 98  1  0
 98 99  1  0
 99100  1  0
100101  1  0
101102  1  0
101103  1  0
 99104  1  0
104105  2  0
104106  1  0
106107  1  0
107108  1  0
108109  1  0
109110  2  0
110111  1  0
111112  1  0
112113  2  0
113114  1  0
114115  2  0
115116  1  0
116117  2  0
107118  1  0
118119  2  0
118120  1  0
120121  1  0
121122  1  0
122123  1  0
123124  1  0
124125  1  0
125126  1  0
121127  1  0
127128  2  0
127129  1  0
129130  1  0
130131  1  0
131132  1  0
132133  1  0
132134  1  0
130135  1  0
135136  2  0
135137  1  0
137138  1  0
138139  1  0
139140  1  0
140141  1  0
140142  1  0
138143  1  0
143144  2  0
143145  1  0
145146  1  0
146147  1  0
147148  1  0
148149  1  0
149150  1  0
150151  2  0
150152  1  0
152153  1  0
153154  1  0
154155  1  0
155156  1  0
156157  2  0
156158  1  0
153159  1  0
159160  2  0
159161  1  0
161162  1  0
162163  1  0
163164  1  0
164165  1  0
164166  2  0
162167  1  0
167168  2  0
167169  1  0
  8  3  1  0
 81 76  1  0
117109  1  0
149145  1  0
 11  6  1  0
117112  1  0
 18 13  2  0
 22  9  1  0
 26 21  1  0
  2170  1  0
  4171  1  0
  5172  1  0
  8173  1  0
 15174  1  0
 17175  1  0
 18176  1  0
 19177  1  0
 23178  1  0
 24179  1  0
 26180  1  0
 27181  1  0
 29182  1  0
 30183  1  0
 30184  1  0
 31185  1  0
 31186  1  0
 34187  1  0
 35188  1  1
 36189  1  0
 36190  1  0
 37191  1  0
 38192  1  0
 38193  1  0
 38194  1  0
 39195  1  0
 39196  1  0
 39197  1  0
 42198  1  0
 43199  1  6
 44200  1  0
 44201  1  0
 45202  1  0
 48203  1  0
 49204  1  1
 50205  1  0
 50206  1  0
 51207  1  0
 51208  1  0
 53209  1  0
 53210  1  0
 57211  1  0
 58212  1  6
 59213  1  0
 59214  1  0
 60215  1  0
 60216  1  0
 66217  1  0
 67218  1  1
 68219  1  1
 69220  1  0
 70221  1  0
 70222  1  0
 70223  1  0
 73224  1  0
 74225  1  6
 75226  1  0
 75227  1  0
 77228  1  0
 78229  1  0
 79230  1  0
 80231  1  0
 81232  1  0
 84233  1  0
 85234  1  1
 86235  1  0
 86236  1  0
 87237  1  0
 90238  1  0
 91239  1  6
 92240  1  0
 92241  1  0
 98242  1  0
 99243  1  1
100244  1  0
100245  1  0
101246  1  0
102247  1  0
102248  1  0
102249  1  0
103250  1  0
103251  1  0
103252  1  0
106253  1  0
107254  1  6
108255  1  0
108256  1  0
110257  1  0
111258  1  0
113259  1  0
114260  1  0
115261  1  0
116262  1  0
120263  1  0
121264  1  1
122265  1  0
122266  1  0
123267  1  0
123268  1  0
124269  1  0
124270  1  0
125271  1  0
125272  1  0
126273  1  0
126274  1  0
126275  1  0
129276  1  0
130277  1  6
131278  1  0
131279  1  0
132280  1  0
133281  1  0
133282  1  0
133283  1  0
134284  1  0
134285  1  0
134286  1  0
137287  1  0
138288  1  1
139289  1  0
139290  1  0
140291  1  0
141292  1  0
141293  1  0
141294  1  0
142295  1  0
142296  1  0
142297  1  0
146298  1  0
146299  1  0
147300  1  0
147301  1  0
148302  1  0
148303  1  0
149304  1  0
152305  1  0
153306  1  1
154307  1  0
154308  1  0
155309  1  0
155310  1  0
161311  1  0
162312  1  6
163313  1  0
163314  1  0
165315  1  0
165316  1  0
M  CHG  5  63  -1  95  -1 126   1 158  -1 169  -1
M  END
