
     RDKit          2D

389394  0  0  0  0  0  0  0  0999 V2000
   26.7221   -4.4929    0.0000 C   0  0  0  0  0  0  0  0  0  0  0  0
   28.2079   -4.2868    0.0000 N   0  0  0  0  0  0  0  0  0  0  0  0
   29.1293   -5.4705    0.0000 C   0  0  0  0  0  0  0  0  0  0  0  0
   28.5649   -6.8602    0.0000 C   0  0  0  0  0  0  0  0  0  0  0  0
   29.4863   -8.0439    0.0000 C   0  0  0  0  0  0  0  0  0  0  0  0
   30.9720   -7.8378    0.0000 C   0  0  0  0  0  0  0  0  0  0  0  0
   31.5364   -6.4480    0.0000 C   0  0  0  0  0  0  0  0  0  0  0  0
   30.6150   -5.2643    0.0000 C   0  0  0  0  0  0  0  0  0  0  0  0
   33.0326   -6.5553    0.0000 C   0  0  0  0  0  0  0  0  0  0  0  0
   33.3929   -8.0114    0.0000 O   0  0  0  0  0  0  0  0  0  0  0  0
   32.1194   -8.8040    0.0000 C   0  0  0  0  0  0  0  0  0  0  0  0
   32.0121  -10.3001    0.0000 O   0  0  0  0  0  0  0  0  0  0  0  0
   34.5093   -6.8184    0.0000 C   0  0  0  0  0  0  0  0  0  0  0  0
   35.4755   -5.6710    0.0000 C   0  0  0  0  0  0  0  0  0  0  0  0
   36.9523   -5.9341    0.0000 C   0  0  0  0  0  0  0  0  0  0  0  0
   37.4628   -7.3446    0.0000 C   0  0  0  0  0  0  0  0  0  0  0  0
   36.4966   -8.4919    0.0000 C   0  0  0  0  0  0  0  0  0  0  0  0
   35.0199   -8.2288    0.0000 C   0  0  0  0  0  0  0  0  0  0  0  0
   38.9396   -7.6076    0.0000 O   0  0  0  0  0  0  0  0  0  0  0  0
   34.9650   -4.2606    0.0000 O   0  0  0  0  0  0  0  0  0  0  0  0
   33.4883   -3.9975    0.0000 C   0  0  0  0  0  0  0  0  0  0  0  0
   32.5221   -5.1448    0.0000 C   0  0  0  0  0  0  0  0  0  0  0  0
   31.4962   -4.3463    0.0000 C   0  0  0  0  0  0  0  0  0  0  0  0
   31.2239   -3.5941    0.0000 C   0  0  0  0  0  0  0  0  0  0  0  0
   31.7392   -2.9821    0.0000 C   0  0  0  0  0  0  0  0  0  0  0  0
   32.5268   -3.1225    0.0000 C   0  0  0  0  0  0  0  0  0  0  0  0
   30.9905   -0.9135    0.0000 O   0  0  0  0  0  0  0  0  0  0  0  0
   26.1577   -5.8827    0.0000 S   0  0  0  0  0  0  0  0  0  0  0  0
   25.8007   -3.3093    0.0000 N   0  0  0  0  0  0  0  0  0  0  0  0
   24.3149   -3.5154    0.0000 C   0  0  0  0  0  0  0  0  0  0  0  0
   23.3935   -2.3317    0.0000 C   0  0  0  0  0  0  0  0  0  0  0  0
   21.9078   -2.5379    0.0000 C   0  0  0  0  0  0  0  0  0  0  0  0
   21.5170   -3.9861    0.0000 O   0  0  0  0  0  0  0  0  0  0  0  0
   20.9864   -1.3542    0.0000 N   0  0  0  0  0  0  0  0  0  0  0  0
   19.5006   -1.5603    0.0000 C   0  0  0  0  0  0  0  0  0  0  0  0
   18.6720   -2.8107    0.0000 C   0  0  0  0  0  0  0  0  0  0  0  0
   17.5117   -3.7614    0.0000 C   0  0  0  0  0  0  0  0  0  0  0  0
   16.1228   -4.3277    0.0000 C   0  0  0  0  0  0  0  0  0  0  0  0
   14.6286   -4.4595    0.0000 C   0  0  0  0  0  0  0  0  0  0  0  0
   20.4484   -2.7230    0.0000 C   0  0  0  0  0  0  0  0  0  0  0  0
   19.9238   -0.1213    0.0000 C   0  0  0  0  0  0  0  0  0  0  0  0
   21.4236   -0.1426    0.0000 O   0  0  0  0  0  0  0  0  0  0  0  0
   19.9040    1.3786    0.0000 N   0  0  0  0  0  0  0  0  0  0  0  0
   19.4430    2.8060    0.0000 C   0  0  0  0  0  0  0  0  0  0  0  0
   20.2082    4.0961    0.0000 C   0  0  0  0  0  0  0  0  0  0  0  0
   21.7081    4.0785    0.0000 C   0  0  0  0  0  0  0  0  0  0  0  0
   22.4733    5.3687    0.0000 C   0  0  0  0  0  0  0  0  0  0  0  0
   23.9732    5.3510    0.0000 N   0  0  0  0  0  0  0  0  0  0  0  0
   24.7384    6.6412    0.0000 C   0  0  0  0  0  0  0  0  0  0  0  0
   26.2383    6.6235    0.0000 N   0  0  0  0  0  0  0  0  0  0  0  0
   24.0038    7.9489    0.0000 N   0  0  0  0  0  0  0  0  0  0  0  0
   18.5818    4.0341    0.0000 C   0  0  0  0  0  0  0  0  0  0  0  0
   19.6678    5.0688    0.0000 O   0  0  0  0  0  0  0  0  0  0  0  0
   17.3968    4.9538    0.0000 N   0  0  0  0  0  0  0  0  0  0  0  0
   15.9934    5.4833    0.0000 C   0  0  0  0  0  0  0  0  0  0  0  0
   15.4618    6.8860    0.0000 C   0  0  0  0  0  0  0  0  0  0  0  0
   16.4108    8.0477    0.0000 C   0  0  0  0  0  0  0  0  0  0  0  0
   15.8792    9.4503    0.0000 C   0  0  0  0  0  0  0  0  0  0  0  0
   16.8281   10.6120    0.0000 N   0  0  0  0  0  0  0  0  0  0  0  0
   16.2966   12.0147    0.0000 C   0  0  0  0  0  0  0  0  0  0  0  0
   17.2455   13.1763    0.0000 N   0  0  0  0  0  0  0  0  0  0  0  0
   14.8161   12.2556    0.0000 N   0  0  0  0  0  0  0  0  0  0  0  0
   14.4962    5.5757    0.0000 C   0  0  0  0  0  0  0  0  0  0  0  0
   14.3644    7.0699    0.0000 O   0  0  0  0  0  0  0  0  0  0  0  0
   13.0384    5.2227    0.0000 N   0  0  0  0  0  0  0  0  0  0  0  0
   11.7493    4.4556    0.0000 C   0  0  0  0  0  0  0  0  0  0  0  0
   10.3213    4.9146    0.0000 C   0  0  0  0  0  0  0  0  0  0  0  0
   10.0047    6.3808    0.0000 C   0  0  0  0  0  0  0  0  0  0  0  0
    8.5766    6.8397    0.0000 C   0  0  0  0  0  0  0  0  0  0  0  0
    8.2600    8.3059    0.0000 N   0  0  0  0  0  0  0  0  0  0  0  0
    7.4651    5.8324    0.0000 O   0  0  0  0  0  0  0  0  0  0  0  0
   10.7437    3.3427    0.0000 C   0  0  0  0  0  0  0  0  0  0  0  0
    9.4933    4.1712    0.0000 O   0  0  0  0  0  0  0  0  0  0  0  0
   10.1107    1.9828    0.0000 N   0  0  0  0  0  0  0  0  0  0  0  0
    9.9067    0.4967    0.0000 C   0  0  0  0  0  0  0  0  0  0  0  0
   10.1498   -0.9835    0.0000 C   0  0  0  0  0  0  0  0  0  0  0  0
   10.8184   -2.3262    0.0000 C   0  0  0  0  0  0  0  0  0  0  0  0
   11.8531   -3.4123    0.0000 C   0  0  0  0  0  0  0  0  0  0  0  0
   13.1619   -4.1451    0.0000 C   0  0  0  0  0  0  0  0  0  0  0  0
    8.6361    1.2938    0.0000 C   0  0  0  0  0  0  0  0  0  0  0  0
    8.6575   -0.3337    0.0000 C   0  0  0  0  0  0  0  0  0  0  0  0
    8.3870   -1.8091    0.0000 O   0  0  0  0  0  0  0  0  0  0  0  0
    7.3138    0.3330    0.0000 N   0  0  0  0  0  0  0  0  0  0  0  0
    6.0646   -0.4974    0.0000 C   0  0  0  0  0  0  0  0  0  0  0  0
    5.1748   -1.7049    0.0000 C   0  0  0  0  0  0  0  0  0  0  0  0
    3.6841   -1.5380    0.0000 C   0  0  0  0  0  0  0  0  0  0  0  0
    2.7942   -2.7456    0.0000 C   0  0  0  0  0  0  0  0  0  0  0  0
    1.3035   -2.5787    0.0000 N   0  0  0  0  0  0  0  0  0  0  0  0
    0.4137   -3.7862    0.0000 C   0  0  0  0  0  0  0  0  0  0  0  0
   -1.0456   -3.4389    0.0000 N   0  0  0  0  0  0  0  0  0  0  0  0
    1.0145   -5.1606    0.0000 N   0  0  0  0  0  0  0  0  0  0  0  0
    4.7209    0.1693    0.0000 C   0  0  0  0  0  0  0  0  0  0  0  0
    4.6264    1.6663    0.0000 O   0  0  0  0  0  0  0  0  0  0  0  0
    3.4717   -0.6611    0.0000 N   0  0  0  0  0  0  0  0  0  0  0  0
    2.1280    0.0056    0.0000 C   0  0  0  0  0  0  0  0  0  0  0  0
    1.0933    1.0916    0.0000 C   0  0  0  0  0  0  0  0  0  0  0  0
    1.5165    2.5307    0.0000 C   0  0  0  0  0  0  0  0  0  0  0  0
    0.4818    3.6167    0.0000 C   0  0  0  0  0  0  0  0  0  0  0  0
    0.9050    5.0558    0.0000 N   0  0  0  0  0  0  0  0  0  0  0  0
   -0.1296    6.1418    0.0000 C   0  0  0  0  0  0  0  0  0  0  0  0
    0.2936    7.5809    0.0000 N   0  0  0  0  0  0  0  0  0  0  0  0
   -1.5875    5.7888    0.0000 N   0  0  0  0  0  0  0  0  0  0  0  0
    0.8788   -0.8248    0.0000 C   0  0  0  0  0  0  0  0  0  0  0  0
    0.6816   -1.9004    0.0000 O   0  0  0  0  0  0  0  0  0  0  0  0
   -0.4649   -0.1581    0.0000 N   0  0  0  0  0  0  0  0  0  0  0  0
   -1.7141   -0.9885    0.0000 C   0  0  0  0  0  0  0  0  0  0  0  0
   -2.6040   -2.1960    0.0000 C   0  0  0  0  0  0  0  0  0  0  0  0
   -4.0947   -2.0292    0.0000 C   0  0  0  0  0  0  0  0  0  0  0  0
   -4.9845   -3.2367    0.0000 C   0  0  0  0  0  0  0  0  0  0  0  0
   -6.4752   -3.0698    0.0000 N   0  0  0  0  0  0  0  0  0  0  0  0
   -7.3651   -4.2774    0.0000 C   0  0  0  0  0  0  0  0  0  0  0  0
   -8.8243   -3.9300    0.0000 N   0  0  0  0  0  0  0  0  0  0  0  0
   -6.7643   -5.6518    0.0000 N   0  0  0  0  0  0  0  0  0  0  0  0
   -3.0578   -0.3218    0.0000 C   0  0  0  0  0  0  0  0  0  0  0  0
   -3.1524    1.1752    0.0000 O   0  0  0  0  0  0  0  0  0  0  0  0
   -4.3070   -1.1522    0.0000 N   0  0  0  0  0  0  0  0  0  0  0  0
   -5.6508   -0.4855    0.0000 C   0  0  0  0  0  0  0  0  0  0  0  0
   -6.6854    0.6005    0.0000 C   0  0  0  0  0  0  0  0  0  0  0  0
   -6.2622    2.0396    0.0000 C   0  0  0  0  0  0  0  0  0  0  0  0
   -7.2969    3.1256    0.0000 C   0  0  0  0  0  0  0  0  0  0  0  0
   -6.8737    4.5646    0.0000 N   0  0  0  0  0  0  0  0  0  0  0  0
   -7.9084    5.6507    0.0000 C   0  0  0  0  0  0  0  0  0  0  0  0
   -7.4852    7.0897    0.0000 N   0  0  0  0  0  0  0  0  0  0  0  0
   -9.3662    5.2976    0.0000 N   0  0  0  0  0  0  0  0  0  0  0  0
   -6.9000   -1.3159    0.0000 C   0  0  0  0  0  0  0  0  0  0  0  0
   -7.0972   -2.3915    0.0000 O   0  0  0  0  0  0  0  0  0  0  0  0
   -8.2437   -0.6492    0.0000 N   0  0  0  0  0  0  0  0  0  0  0  0
   -9.4929   -1.4796    0.0000 C   0  0  0  0  0  0  0  0  0  0  0  0
  -10.3827   -2.6871    0.0000 C   0  0  0  0  0  0  0  0  0  0  0  0
  -11.8734   -2.5203    0.0000 C   0  0  0  0  0  0  0  0  0  0  0  0
  -12.7633   -3.7278    0.0000 C   0  0  0  0  0  0  0  0  0  0  0  0
  -14.2632   -3.7439    0.0000 N   0  0  0  0  0  0  0  0  0  0  0  0
  -12.1625   -5.1022    0.0000 O   0  0  0  0  0  0  0  0  0  0  0  0
  -10.8366   -0.8130    0.0000 C   0  0  0  0  0  0  0  0  0  0  0  0
  -10.9311    0.6841    0.0000 O   0  0  0  0  0  0  0  0  0  0  0  0
  -12.0858   -1.6433    0.0000 N   0  0  0  0  0  0  0  0  0  0  0  0
  -13.4295   -0.9767    0.0000 C   0  0  0  0  0  0  0  0  0  0  0  0
  -14.4642    0.1094    0.0000 C   0  0  0  0  0  0  0  0  0  0  0  0
  -14.0410    1.5484    0.0000 C   0  0  0  0  0  0  0  0  0  0  0  0
  -15.0756    2.6345    0.0000 C   0  0  0  0  0  0  0  0  0  0  0  0
  -14.6524    4.0735    0.0000 N   0  0  0  0  0  0  0  0  0  0  0  0
  -15.6871    5.1596    0.0000 C   0  0  0  0  0  0  0  0  0  0  0  0
  -15.2639    6.5986    0.0000 N   0  0  0  0  0  0  0  0  0  0  0  0
  -17.1450    4.8065    0.0000 N   0  0  0  0  0  0  0  0  0  0  0  0
  -14.6787   -1.8070    0.0000 C   0  0  0  0  0  0  0  0  0  0  0  0
  -14.7433   -2.8986    0.0000 O   0  0  0  0  0  0  0  0  0  0  0  0
  -16.0224   -1.1404    0.0000 N   0  0  0  0  0  0  0  0  0  0  0  0
  -17.2716   -1.9707    0.0000 C   0  0  0  0  0  0  0  0  0  0  0  0
  -18.1615   -3.1783    0.0000 C   0  0  0  0  0  0  0  0  0  0  0  0
  -19.6522   -3.0114    0.0000 C   0  0  0  0  0  0  0  0  0  0  0  0
  -20.5420   -4.2189    0.0000 C   0  0  0  0  0  0  0  0  0  0  0  0
  -22.0327   -4.0521    0.0000 N   0  0  0  0  0  0  0  0  0  0  0  0
  -22.9226   -5.2596    0.0000 C   0  0  0  0  0  0  0  0  0  0  0  0
  -24.3818   -4.9123    0.0000 N   0  0  0  0  0  0  0  0  0  0  0  0
  -22.3217   -6.6340    0.0000 N   0  0  0  0  0  0  0  0  0  0  0  0
  -18.6153   -1.3041    0.0000 C   0  0  0  0  0  0  0  0  0  0  0  0
  -18.7098    0.1929    0.0000 O   0  0  0  0  0  0  0  0  0  0  0  0
  -19.8645   -2.1344    0.0000 N   0  0  0  0  0  0  0  0  0  0  0  0
  -21.2082   -1.4678    0.0000 C   0  0  0  0  0  0  0  0  0  0  0  0
  -22.2429   -0.3817    0.0000 C   0  0  0  0  0  0  0  0  0  0  0  0
  -21.8197    1.0573    0.0000 C   0  0  0  0  0  0  0  0  0  0  0  0
  -22.8544    2.1433    0.0000 C   0  0  0  0  0  0  0  0  0  0  0  0
  -22.4312    3.5824    0.0000 N   0  0  0  0  0  0  0  0  0  0  0  0
  -23.4659    4.6684    0.0000 C   0  0  0  0  0  0  0  0  0  0  0  0
  -23.0427    6.1075    0.0000 N   0  0  0  0  0  0  0  0  0  0  0  0
  -24.9237    4.3154    0.0000 N   0  0  0  0  0  0  0  0  0  0  0  0
  -22.4574   -2.2981    0.0000 C   0  0  0  0  0  0  0  0  0  0  0  0
  -22.6547   -3.3737    0.0000 O   0  0  0  0  0  0  0  0  0  0  0  0
  -23.8011   -1.6315    0.0000 N   0  0  0  0  0  0  0  0  0  0  0  0
  -25.0503   -2.4618    0.0000 C   0  0  0  0  0  0  0  0  0  0  0  0
  -25.9402   -3.6694    0.0000 C   0  0  0  0  0  0  0  0  0  0  0  0
  -27.4309   -3.5025    0.0000 C   0  0  0  0  0  0  0  0  0  0  0  0
  -28.3208   -4.7100    0.0000 C   0  0  0  0  0  0  0  0  0  0  0  0
  -29.8114   -4.5432    0.0000 N   0  0  0  0  0  0  0  0  0  0  0  0
  -30.7013   -5.7507    0.0000 C   0  0  0  0  0  0  0  0  0  0  0  0
  -32.1920   -5.5838    0.0000 N   0  0  0  0  0  0  0  0  0  0  0  0
  -30.1005   -7.1251    0.0000 N   0  0  0  0  0  0  0  0  0  0  0  0
  -26.3941   -1.7952    0.0000 C   0  0  0  0  0  0  0  0  0  0  0  0
  -26.4886   -0.2982    0.0000 O   0  0  0  0  0  0  0  0  0  0  0  0
  -27.6433   -2.6256    0.0000 N   0  0  0  0  0  0  0  0  0  0  0  0
  -28.9870   -1.9589    0.0000 C   0  0  0  0  0  0  0  0  0  0  0  0
  -30.0216   -0.8729    0.0000 C   0  0  0  0  0  0  0  0  0  0  0  0
  -29.5984    0.5662    0.0000 C   0  0  0  0  0  0  0  0  0  0  0  0
  -30.6331    1.6522    0.0000 C   0  0  0  0  0  0  0  0  0  0  0  0
  -30.2099    3.0913    0.0000 N   0  0  0  0  0  0  0  0  0  0  0  0
  -31.2446    4.1773    0.0000 C   0  0  0  0  0  0  0  0  0  0  0  0
  -30.8214    5.6164    0.0000 N   0  0  0  0  0  0  0  0  0  0  0  0
  -32.7025    3.8243    0.0000 N   0  0  0  0  0  0  0  0  0  0  0  0
  -30.2362   -2.7893    0.0000 C   0  0  0  0  0  0  0  0  0  0  0  0
  -31.6511   -2.2914    0.0000 O   0  0  0  0  0  0  0  0  0  0  0  0
  -30.4553   -3.9843    0.0000 O   0  0  0  0  0  0  0  0  0  0  0  0
   28.5986   -2.8386    0.0000 H   0  0  0  0  0  0  0  0  0  0  0  0
   27.0791   -7.0664    0.0000 H   0  0  0  0  0  0  0  0  0  0  0  0
   28.9219   -9.4337    0.0000 H   0  0  0  0  0  0  0  0  0  0  0  0
   30.8263   -3.7793    0.0000 H   0  0  0  0  0  0  0  0  0  0  0  0
   37.9185   -4.7868    0.0000 H   0  0  0  0  0  0  0  0  0  0  0  0
   37.0071   -9.9024    0.0000 H   0  0  0  0  0  0  0  0  0  0  0  0
   34.0536   -9.3762    0.0000 H   0  0  0  0  0  0  0  0  0  0  0  0
   39.4501   -9.0181    0.0000 H   0  0  0  0  0  0  0  0  0  0  0  0
   30.0791   -6.0291    0.0000 H   0  0  0  0  0  0  0  0  0  0  0  0
   29.1011   -3.0301    0.0000 H   0  0  0  0  0  0  0  0  0  0  0  0
   33.9440   -1.4397    0.0000 H   0  0  0  0  0  0  0  0  0  0  0  0
   31.9567    0.2339    0.0000 H   0  0  0  0  0  0  0  0  0  0  0  0
   26.3651   -1.9195    0.0000 H   0  0  0  0  0  0  0  0  0  0  0  0
   22.9893   -4.2173    0.0000 H   0  0  0  0  0  0  0  0  0  0  0  0
   24.7759   -4.9428    0.0000 H   0  0  0  0  0  0  0  0  0  0  0  0
   22.9325   -0.9043    0.0000 H   0  0  0  0  0  0  0  0  0  0  0  0
   24.7192   -1.6299    0.0000 H   0  0  0  0  0  0  0  0  0  0  0  0
   21.7160   -0.0436    0.0000 H   0  0  0  0  0  0  0  0  0  0  0  0
   20.1121   -3.2304    0.0000 H   0  0  0  0  0  0  0  0  0  0  0  0
   19.0613   -4.2593    0.0000 H   0  0  0  0  0  0  0  0  0  0  0  0
   18.6542   -4.7333    0.0000 H   0  0  0  0  0  0  0  0  0  0  0  0
   17.6398   -5.2559    0.0000 H   0  0  0  0  0  0  0  0  0  0  0  0
   17.0762   -5.4857    0.0000 H   0  0  0  0  0  0  0  0  0  0  0  0
   15.6284   -5.7439    0.0000 H   0  0  0  0  0  0  0  0  0  0  0  0
   14.5362   -5.9567    0.0000 H   0  0  0  0  0  0  0  0  0  0  0  0
   19.9717   -4.3193    0.0000 H   0  0  0  0  0  0  0  0  0  0  0  0
   21.3517   -3.8682    0.0000 H   0  0  0  0  0  0  0  0  0  0  0  0
   21.6003   -2.0823    0.0000 H   0  0  0  0  0  0  0  0  0  0  0  0
   21.3842    1.6217    0.0000 H   0  0  0  0  0  0  0  0  0  0  0  0
   20.9023    2.4587    0.0000 H   0  0  0  0  0  0  0  0  0  0  0  0
   20.3043    5.5931    0.0000 H   0  0  0  0  0  0  0  0  0  0  0  0
   18.9747    4.9495    0.0000 H   0  0  0  0  0  0  0  0  0  0  0  0
   23.1115    3.5490    0.0000 H   0  0  0  0  0  0  0  0  0  0  0  0
   21.6121    2.5816    0.0000 H   0  0  0  0  0  0  0  0  0  0  0  0
   22.7512    6.8427    0.0000 H   0  0  0  0  0  0  0  0  0  0  0  0
   21.1449    6.0653    0.0000 H   0  0  0  0  0  0  0  0  0  0  0  0
   24.7079    4.0433    0.0000 H   0  0  0  0  0  0  0  0  0  0  0  0
   27.0036    7.9137    0.0000 H   0  0  0  0  0  0  0  0  0  0  0  0
   26.9730    5.3158    0.0000 H   0  0  0  0  0  0  0  0  0  0  0  0
   24.7690    9.2391    0.0000 H   0  0  0  0  0  0  0  0  0  0  0  0
   22.5039    7.9665    0.0000 H   0  0  0  0  0  0  0  0  0  0  0  0
   18.1296    6.2626    0.0000 H   0  0  0  0  0  0  0  0  0  0  0  0
   17.1748    6.4077    0.0000 H   0  0  0  0  0  0  0  0  0  0  0  0
   14.3514    7.8944    0.0000 H   0  0  0  0  0  0  0  0  0  0  0  0
   14.0255    6.4536    0.0000 H   0  0  0  0  0  0  0  0  0  0  0  0
   17.6998    8.8147    0.0000 H   0  0  0  0  0  0  0  0  0  0  0  0
   17.5212    7.0393    0.0000 H   0  0  0  0  0  0  0  0  0  0  0  0
   14.8999   10.5866    0.0000 H   0  0  0  0  0  0  0  0  0  0  0  0
   14.5063    8.8461    0.0000 H   0  0  0  0  0  0  0  0  0  0  0  0
   18.3087   10.3710    0.0000 H   0  0  0  0  0  0  0  0  0  0  0  0
   16.7139   14.5790    0.0000 H   0  0  0  0  0  0  0  0  0  0  0  0
   18.7260   12.9354    0.0000 H   0  0  0  0  0  0  0  0  0  0  0  0
   14.2845   13.6583    0.0000 H   0  0  0  0  0  0  0  0  0  0  0  0
   13.8671   11.0940    0.0000 H   0  0  0  0  0  0  0  0  0  0  0  0
   12.4720    6.6116    0.0000 H   0  0  0  0  0  0  0  0  0  0  0  0
   11.7633    5.9555    0.0000 H   0  0  0  0  0  0  0  0  0  0  0  0
    8.8224    4.8574    0.0000 H   0  0  0  0  0  0  0  0  0  0  0  0
    9.7638    3.5220    0.0000 H   0  0  0  0  0  0  0  0  0  0  0  0
   10.2087    7.8668    0.0000 H   0  0  0  0  0  0  0  0  0  0  0  0
   11.4855    6.6202    0.0000 H   0  0  0  0  0  0  0  0  0  0  0  0
    6.8320    8.7649    0.0000 H   0  0  0  0  0  0  0  0  0  0  0  0
    9.3715    9.3132    0.0000 H   0  0  0  0  0  0  0  0  0  0  0  0
    8.6717    2.4060    0.0000 H   0  0  0  0  0  0  0  0  0  0  0  0
    9.2009   -2.1452    0.0000 H   0  0  0  0  0  0  0  0  0  0  0  0
    8.6500   -0.9585    0.0000 H   0  0  0  0  0  0  0  0  0  0  0  0
   10.0888   -3.6368    0.0000 H   0  0  0  0  0  0  0  0  0  0  0  0
    9.3779   -2.7444    0.0000 H   0  0  0  0  0  0  0  0  0  0  0  0
   11.7234   -4.9066    0.0000 H   0  0  0  0  0  0  0  0  0  0  0  0
   10.5087   -4.0775    0.0000 H   0  0  0  0  0  0  0  0  0  0  0  0
   12.6323   -5.5485    0.0000 H   0  0  0  0  0  0  0  0  0  0  0  0
    7.1800    0.9336    0.0000 H   0  0  0  0  0  0  0  0  0  0  0  0
    7.8658    2.5810    0.0000 H   0  0  0  0  0  0  0  0  0  0  0  0
    9.3426    2.6170    0.0000 H   0  0  0  0  0  0  0  0  0  0  0  0
    7.0375    1.8073    0.0000 H   0  0  0  0  0  0  0  0  0  0  0  0
    7.0993   -1.5834    0.0000 H   0  0  0  0  0  0  0  0  0  0  0  0
    4.9301   -3.1848    0.0000 H   0  0  0  0  0  0  0  0  0  0  0  0
    6.5185   -2.3716    0.0000 H   0  0  0  0  0  0  0  0  0  0  0  0
    2.3404   -0.8714    0.0000 H   0  0  0  0  0  0  0  0  0  0  0  0
    3.3820   -0.0688    0.0000 H   0  0  0  0  0  0  0  0  0  0  0  0
    2.3710   -4.1846    0.0000 H   0  0  0  0  0  0  0  0  0  0  0  0
    4.0466   -3.5711    0.0000 H   0  0  0  0  0  0  0  0  0  0  0  0
    0.3880   -1.3905    0.0000 H   0  0  0  0  0  0  0  0  0  0  0  0
   -1.9669   -4.8269    0.0000 H   0  0  0  0  0  0  0  0  0  0  0  0
   -1.5276   -2.1768    0.0000 H   0  0  0  0  0  0  0  0  0  0  0  0
    0.1246   -6.3682    0.0000 H   0  0  0  0  0  0  0  0  0  0  0  0
    2.5052   -5.3275    0.0000 H   0  0  0  0  0  0  0  0  0  0  0  0
    3.2012   -2.1365    0.0000 H   0  0  0  0  0  0  0  0  0  0  0  0
    3.1584    1.0956    0.0000 H   0  0  0  0  0  0  0  0  0  0  0  0
   -0.2504    1.7583    0.0000 H   0  0  0  0  0  0  0  0  0  0  0  0
   -0.0623    0.1353    0.0000 H   0  0  0  0  0  0  0  0  0  0  0  0
    2.4064    3.7382    0.0000 H   0  0  0  0  0  0  0  0  0  0  0  0
    2.9315    2.0328    0.0000 H   0  0  0  0  0  0  0  0  0  0  0  0
   -0.8619    4.2834    0.0000 H   0  0  0  0  0  0  0  0  0  0  0  0
   -0.5486    2.5266    0.0000 H   0  0  0  0  0  0  0  0  0  0  0  0
    2.3629    5.4088    0.0000 H   0  0  0  0  0  0  0  0  0  0  0  0
   -0.7411    8.6669    0.0000 H   0  0  0  0  0  0  0  0  0  0  0  0
    1.7514    7.9339    0.0000 H   0  0  0  0  0  0  0  0  0  0  0  0
   -2.6222    6.8748    0.0000 H   0  0  0  0  0  0  0  0  0  0  0  0
   -2.0107    4.3497    0.0000 H   0  0  0  0  0  0  0  0  0  0  0  0
   -0.7412    1.3162    0.0000 H   0  0  0  0  0  0  0  0  0  0  0  0
   -0.6795   -2.0745    0.0000 H   0  0  0  0  0  0  0  0  0  0  0  0
   -2.8486   -3.6759    0.0000 H   0  0  0  0  0  0  0  0  0  0  0  0
   -1.1389   -2.5177    0.0000 H   0  0  0  0  0  0  0  0  0  0  0  0
   -5.4384   -1.3625    0.0000 H   0  0  0  0  0  0  0  0  0  0  0  0
   -4.3968   -0.5599    0.0000 H   0  0  0  0  0  0  0  0  0  0  0  0
   -5.4077   -4.6758    0.0000 H   0  0  0  0  0  0  0  0  0  0  0  0
   -3.7321   -4.0622    0.0000 H   0  0  0  0  0  0  0  0  0  0  0  0
   -7.3908   -1.8816    0.0000 H   0  0  0  0  0  0  0  0  0  0  0  0
   -9.7456   -5.3180    0.0000 H   0  0  0  0  0  0  0  0  0  0  0  0
   -9.3064   -2.6679    0.0000 H   0  0  0  0  0  0  0  0  0  0  0  0
   -7.6541   -6.8593    0.0000 H   0  0  0  0  0  0  0  0  0  0  0  0
   -5.2736   -5.8186    0.0000 H   0  0  0  0  0  0  0  0  0  0  0  0
   -4.5776   -2.6276    0.0000 H   0  0  0  0  0  0  0  0  0  0  0  0
   -4.6203    0.6045    0.0000 H   0  0  0  0  0  0  0  0  0  0  0  0
   -8.0291    1.2671    0.0000 H   0  0  0  0  0  0  0  0  0  0  0  0
   -7.8410   -0.3558    0.0000 H   0  0  0  0  0  0  0  0  0  0  0  0
   -5.3724    3.2471    0.0000 H   0  0  0  0  0  0  0  0  0  0  0  0
   -4.8473    1.5417    0.0000 H   0  0  0  0  0  0  0  0  0  0  0  0
   -8.6406    3.7922    0.0000 H   0  0  0  0  0  0  0  0  0  0  0  0
   -8.3273    2.0355    0.0000 H   0  0  0  0  0  0  0  0  0  0  0  0
   -5.4158    4.9177    0.0000 H   0  0  0  0  0  0  0  0  0  0  0  0
   -8.5198    8.1758    0.0000 H   0  0  0  0  0  0  0  0  0  0  0  0
   -6.0273    7.4428    0.0000 H   0  0  0  0  0  0  0  0  0  0  0  0
  -10.4009    6.3837    0.0000 H   0  0  0  0  0  0  0  0  0  0  0  0
   -9.7894    3.8586    0.0000 H   0  0  0  0  0  0  0  0  0  0  0  0
   -8.5200    0.8251    0.0000 H   0  0  0  0  0  0  0  0  0  0  0  0
   -8.4582   -2.5656    0.0000 H   0  0  0  0  0  0  0  0  0  0  0  0
  -10.8059   -4.1262    0.0000 H   0  0  0  0  0  0  0  0  0  0  0  0
   -8.9176   -3.0088    0.0000 H   0  0  0  0  0  0  0  0  0  0  0  0
  -13.2171   -1.8536    0.0000 H   0  0  0  0  0  0  0  0  0  0  0  0
  -12.1755   -1.0510    0.0000 H   0  0  0  0  0  0  0  0  0  0  0  0
  -15.1438   -4.7685    0.0000 H   0  0  0  0  0  0  0  0  0  0  0  0
  -15.2141   -2.3760    0.0000 H   0  0  0  0  0  0  0  0  0  0  0  0
  -12.3563   -3.1187    0.0000 H   0  0  0  0  0  0  0  0  0  0  0  0
  -12.3991    0.1134    0.0000 H   0  0  0  0  0  0  0  0  0  0  0  0
  -15.8079    0.7760    0.0000 H   0  0  0  0  0  0  0  0  0  0  0  0
  -15.6198   -0.8470    0.0000 H   0  0  0  0  0  0  0  0  0  0  0  0
  -13.1511    2.7560    0.0000 H   0  0  0  0  0  0  0  0  0  0  0  0
  -12.6260    1.0505    0.0000 H   0  0  0  0  0  0  0  0  0  0  0  0
  -16.4194    3.3011    0.0000 H   0  0  0  0  0  0  0  0  0  0  0  0
  -16.1061    1.5444    0.0000 H   0  0  0  0  0  0  0  0  0  0  0  0
  -13.1946    4.4266    0.0000 H   0  0  0  0  0  0  0  0  0  0  0  0
  -16.2986    7.6847    0.0000 H   0  0  0  0  0  0  0  0  0  0  0  0
  -13.8061    6.9517    0.0000 H   0  0  0  0  0  0  0  0  0  0  0  0
  -18.1796    5.8926    0.0000 H   0  0  0  0  0  0  0  0  0  0  0  0
  -17.5682    3.3675    0.0000 H   0  0  0  0  0  0  0  0  0  0  0  0
  -16.2987    0.3340    0.0000 H   0  0  0  0  0  0  0  0  0  0  0  0
  -16.2369   -3.0568    0.0000 H   0  0  0  0  0  0  0  0  0  0  0  0
  -18.4061   -4.6582    0.0000 H   0  0  0  0  0  0  0  0  0  0  0  0
  -16.8178   -3.8449    0.0000 H   0  0  0  0  0  0  0  0  0  0  0  0
  -20.9959   -2.3447    0.0000 H   0  0  0  0  0  0  0  0  0  0  0  0
  -19.9543   -1.5421    0.0000 H   0  0  0  0  0  0  0  0  0  0  0  0
  -20.9652   -5.6580    0.0000 H   0  0  0  0  0  0  0  0  0  0  0  0
  -19.2896   -5.0444    0.0000 H   0  0  0  0  0  0  0  0  0  0  0  0
  -22.9483   -2.8639    0.0000 H   0  0  0  0  0  0  0  0  0  0  0  0
  -25.3031   -6.3003    0.0000 H   0  0  0  0  0  0  0  0  0  0  0  0
  -24.8638   -3.6501    0.0000 H   0  0  0  0  0  0  0  0  0  0  0  0
  -23.2116   -7.8415    0.0000 H   0  0  0  0  0  0  0  0  0  0  0  0
  -20.8311   -6.8009    0.0000 H   0  0  0  0  0  0  0  0  0  0  0  0
  -20.1351   -3.6098    0.0000 H   0  0  0  0  0  0  0  0  0  0  0  0
  -20.1778   -0.3777    0.0000 H   0  0  0  0  0  0  0  0  0  0  0  0
  -23.5866    0.2849    0.0000 H   0  0  0  0  0  0  0  0  0  0  0  0
  -23.3985   -1.3381    0.0000 H   0  0  0  0  0  0  0  0  0  0  0  0
  -20.9298    2.2649    0.0000 H   0  0  0  0  0  0  0  0  0  0  0  0
  -20.4048    0.5594    0.0000 H   0  0  0  0  0  0  0  0  0  0  0  0
  -24.1981    2.8100    0.0000 H   0  0  0  0  0  0  0  0  0  0  0  0
  -23.8848    1.0533    0.0000 H   0  0  0  0  0  0  0  0  0  0  0  0
  -20.9733    3.9354    0.0000 H   0  0  0  0  0  0  0  0  0  0  0  0
  -24.0773    7.1935    0.0000 H   0  0  0  0  0  0  0  0  0  0  0  0
  -21.5848    6.4605    0.0000 H   0  0  0  0  0  0  0  0  0  0  0  0
  -25.9584    5.4014    0.0000 H   0  0  0  0  0  0  0  0  0  0  0  0
  -25.3469    2.8763    0.0000 H   0  0  0  0  0  0  0  0  0  0  0  0
  -24.0774   -0.1571    0.0000 H   0  0  0  0  0  0  0  0  0  0  0  0
  -24.0157   -3.5479    0.0000 H   0  0  0  0  0  0  0  0  0  0  0  0
  -26.1848   -5.1493    0.0000 H   0  0  0  0  0  0  0  0  0  0  0  0
  -24.4751   -3.9911    0.0000 H   0  0  0  0  0  0  0  0  0  0  0  0
  -28.7746   -2.8359    0.0000 H   0  0  0  0  0  0  0  0  0  0  0  0
  -27.7330   -2.0332    0.0000 H   0  0  0  0  0  0  0  0  0  0  0  0
  -28.7440   -6.1491    0.0000 H   0  0  0  0  0  0  0  0  0  0  0  0
  -27.0683   -5.5355    0.0000 H   0  0  0  0  0  0  0  0  0  0  0  0
  -30.7270   -3.3550    0.0000 H   0  0  0  0  0  0  0  0  0  0  0  0
  -33.0819   -6.7914    0.0000 H   0  0  0  0  0  0  0  0  0  0  0  0
  -32.7928   -4.2094    0.0000 H   0  0  0  0  0  0  0  0  0  0  0  0
  -30.9903   -8.3327    0.0000 H   0  0  0  0  0  0  0  0  0  0  0  0
  -28.6098   -7.2920    0.0000 H   0  0  0  0  0  0  0  0  0  0  0  0
  -27.9138   -4.1010    0.0000 H   0  0  0  0  0  0  0  0  0  0  0  0
  -27.9566   -0.8688    0.0000 H   0  0  0  0  0  0  0  0  0  0  0  0
  -31.4366   -0.3750    0.0000 H   0  0  0  0  0  0  0  0  0  0  0  0
  -31.0521   -1.9629    0.0000 H   0  0  0  0  0  0  0  0  0  0  0  0
  -28.7086    1.7737    0.0000 H   0  0  0  0  0  0  0  0  0  0  0  0
  -28.1835    0.0683    0.0000 H   0  0  0  0  0  0  0  0  0  0  0  0
  -31.9768    2.3189    0.0000 H   0  0  0  0  0  0  0  0  0  0  0  0
  -31.6635    0.5622    0.0000 H   0  0  0  0  0  0  0  0  0  0  0  0
  -28.7521    3.4443    0.0000 H   0  0  0  0  0  0  0  0  0  0  0  0
  -31.8561    6.7024    0.0000 H   0  0  0  0  0  0  0  0  0  0  0  0
  -29.3635    5.9694    0.0000 H   0  0  0  0  0  0  0  0  0  0  0  0
  -33.7371    4.9103    0.0000 H   0  0  0  0  0  0  0  0  0  0  0  0
  -33.1256    2.3852    0.0000 H   0  0  0  0  0  0  0  0  0  0  0  0
  1  2  1  0
  2  3  1  0
  3  4  2  0
  4  5  1  0
  5  6  2  0
  6  7  1  0
  7  8  2  0
  7  9  1  0
  9 10  1  0
 10 11  1  0
 11 12  2  0
  9 13  1  0
 13 14  1  0
 14 15  2  0
 15 16  1  0
 16 17  2  0
 17 18  1  0
 16 19  1  0
 14 20  1  0
 20 21  1  0
 21 22  2  0
 22 23  1  0
 23 24  2  0
 24 25  1  0
 25 26  2  0
 25 27  1  0
  1 28  2  0
  1 29  1  0
 29 30  1  0
 30 31  1  0
 31 32  1  0
 32 33  2  0
 32 34  1  0
 35 34  1  1
 35 36  1  0
 36 37  1  0
 37 38  1  0
 38 39  1  0
 35 40  1  0
 35 41  1  0
 41 42  2  0
 41 43  1  0
 43 44  1  0
 44 45  1  0
 45 46  1  0
 46 47  1  0
 47 48  1  0
 48 49  1  0
 49 50  2  3
 49 51  1  0
 44 52  1  0
 52 53  2  0
 52 54  1  0
 54 55  1  0
 55 56  1  0
 56 57  1  0
 57 58  1  0
 58 59  1  0
 59 60  1  0
 60 61  2  3
 60 62  1  0
 55 63  1  0
 63 64  2  0
 63 65  1  0
 65 66  1  0
 66 67  1  0
 67 68  1  0
 68 69  1  0
 69 70  1  0
 69 71  2  0
 66 72  1  0
 72 73  2  0
 72 74  1  0
 74 75  1  0
 75 76  1  0
 76 77  1  0
 77 78  1  0
 78 79  1  0
 75 80  1  0
 75 81  1  1
 81 82  2  0
 81 83  1  0
 83 84  1  0
 84 85  1  0
 85 86  1  0
 86 87  1  0
 87 88  1  0
 88 89  1  0
 89 90  2  3
 89 91  1  0
 84 92  1  0
 92 93  2  0
 92 94  1  0
 94 95  1  0
 95 96  1  0
 96 97  1  0
 97 98  1  0
 98 99  1  0
 99100  1  0
100101  2  3
100102  1  0
 95103  1  0
103104  2  0
103105  1  0
105106  1  0
106107  1  0
107108  1  0
108109  1  0
109110  1  0
110111  1  0
111112  2  3
111113  1  0
106114  1  0
114115  2  0
114116  1  0
116117  1  0
117118  1  0
118119  1  0
119120  1  0
120121  1  0
121122  1  0
122123  2  3
122124  1  0
117125  1  0
125126  2  0
125127  1  0
127128  1  0
128129  1  0
129130  1  0
130131  1  0
131132  1  0
131133  2  0
128134  1  0
134135  2  0
134136  1  0
136137  1  0
137138  1  0
138139  1  0
139140  1  0
140141  1  0
141142  1  0
142143  2  3
142144  1  0
137145  1  0
145146  2  0
145147  1  0
147148  1  0
148149  1  0
149150  1  0
150151  1  0
151152  1  0
152153  1  0
153154  2  3
153155  1  0
148156  1  0
156157  2  0
156158  1  0
158159  1  0
159160  1  0
160161  1  0
161162  1  0
162163  1  0
163164  1  0
164165  2  3
164166  1  0
159167  1  0
167168  2  0
167169  1  0
169170  1  0
170171  1  0
171172  1  0
172173  1  0
173174  1  0
174175  1  0
175176  2  3
175177  1  0
170178  1  0
178179  2  0
178180  1  0
180181  1  0
181182  1  0
182183  1  0
183184  1  0
184185  1  0
185186  1  0
186187  2  3
186188  1  0
181189  1  0
189190  2  0
189191  1  0
  8  3  1  0
 11  6  1  0
 18 13  2  0
 39 79  2  0
 22  9  1  0
 26 21  1  0
  2192  1  0
  4193  1  0
  5194  1  0
  8195  1  0
 15196  1  0
 17197  1  0
 18198  1  0
 19199  1  0
 23200  1  0
 24201  1  0
 26202  1  0
 27203  1  0
 29204  1  0
 30205  1  0
 30206  1  0
 31207  1  0
 31208  1  0
 34209  1  0
 36210  1  0
 36211  1  0
 37212  1  0
 37213  1  0
 38214  1  0
 38215  1  0
 39216  1  0
 40217  1  0
 40218  1  0
 40219  1  0
 43220  1  0
 44221  1  6
 45222  1  0
 45223  1  0
 46224  1  0
 46225  1  0
 47226  1  0
 47227  1  0
 48228  1  0
 50229  1  0
 50230  1  0
 51231  1  0
 51232  1  0
 54233  1  0
 55234  1  6
 56235  1  0
 56236  1  0
 57237  1  0
 57238  1  0
 58239  1  0
 58240  1  0
 59241  1  0
 61242  1  0
 61243  1  0
 62244  1  0
 62245  1  0
 65246  1  0
 66247  1  6
 67248  1  0
 67249  1  0
 68250  1  0
 68251  1  0
 70252  1  0
 70253  1  0
 74254  1  0
 76255  1  0
 76256  1  0
 77257  1  0
 77258  1  0
 78259  1  0
 78260  1  0
 79261  1  0
 80262  1  0
 80263  1  0
 80264  1  0
 83265  1  0
 84266  1  1
 85267  1  0
 85268  1  0
 86269  1  0
 86270  1  0
 87271  1  0
 87272  1  0
 88273  1  0
 90274  1  0
 90275  1  0
 91276  1  0
 91277  1  0
 94278  1  0
 95279  1  6
 96280  1  0
 96281  1  0
 97282  1  0
 97283  1  0
 98284  1  0
 98285  1  0
 99286  1  0
101287  1  0
101288  1  0
102289  1  0
102290  1  0
105291  1  0
106292  1  1
107293  1  0
107294  1  0
108295  1  0
108296  1  0
109297  1  0
109298  1  0
110299  1  0
112300  1  0
112301  1  0
113302  1  0
113303  1  0
116304  1  0
117305  1  6
118306  1  0
118307  1  0
119308  1  0
119309  1  0
120310  1  0
120311  1  0
121312  1  0
123313  1  0
123314  1  0
124315  1  0
124316  1  0
127317  1  0
128318  1  1
129319  1  0
129320  1  0
130321  1  0
130322  1  0
132323  1  0
132324  1  0
136325  1  0
137326  1  6
138327  1  0
138328  1  0
139329  1  0
139330  1  0
140331  1  0
140332  1  0
141333  1  0
143334  1  0
143335  1  0
144336  1  0
144337  1  0
147338  1  0
148339  1  1
149340  1  0
149341  1  0
150342  1  0
150343  1  0
151344  1  0
151345  1  0
152346  1  0
154347  1  0
154348  1  0
155349  1  0
155350  1  0
158351  1  0
159352  1  6
160353  1  0
160354  1  0
161355  1  0
161356  1  0
162357  1  0
162358  1  0
163359  1  0
165360  1  0
165361  1  0
166362  1  0
166363  1  0
169364  1  0
170365  1  1
171366  1  0
171367  1  0
172368  1  0
172369  1  0
173370  1  0
173371  1  0
174372  1  0
176373  1  0
176374  1  0
177375  1  0
177376  1  0
180377  1  0
181378  1  6
182379  1  0
182380  1  0
183381  1  0
183382  1  0
184383  1  0
184384  1  0
185385  1  0
187386  1  0
187387  1  0
188388  1  0
188389  1  0
M  CHG  8  50   1  61   1  90   1 101   1 112   1 123   1 143   1 154   1
M  CHG  4 165   1 176   1 187   1 191  -1
M  END
