
     RDKit          2D

348350  0  0  0  0  0  0  0  0999 V2000
  -22.4749   10.1887    0.0000 N   0  0  0  0  0  0  0  0  0  0  0  0
  -21.5825    8.9830    0.0000 C   0  0  0  0  0  0  0  0  0  0  0  0
  -22.1805    7.6073    0.0000 C   0  0  0  0  0  0  0  0  0  0  0  0
  -21.2881    6.4017    0.0000 C   0  0  0  0  0  0  0  0  0  0  0  0
  -19.7978    6.5717    0.0000 O   0  0  0  0  0  0  0  0  0  0  0  0
  -21.8860    5.0260    0.0000 N   0  0  0  0  0  0  0  0  0  0  0  0
  -20.9936    3.8203    0.0000 C   0  0  0  0  0  0  0  0  0  0  0  0
  -22.3359    3.1509    0.0000 C   0  0  0  0  0  0  0  0  0  0  0  0
  -22.4273    1.6537    0.0000 C   0  0  0  0  0  0  0  0  0  0  0  0
  -23.7696    0.9842    0.0000 C   0  0  0  0  0  0  0  0  0  0  0  0
  -23.8610   -0.5130    0.0000 N   0  0  0  0  0  0  0  0  0  0  0  0
  -25.2033   -1.1825    0.0000 C   0  0  0  0  0  0  0  0  0  0  0  0
  -25.2947   -2.6797    0.0000 N   0  0  0  0  0  0  0  0  0  0  0  0
  -26.4543   -0.3548    0.0000 N   0  0  0  0  0  0  0  0  0  0  0  0
  -19.7427    2.9926    0.0000 C   0  0  0  0  0  0  0  0  0  0  0  0
  -19.9886    1.6652    0.0000 O   0  0  0  0  0  0  0  0  0  0  0  0
  -18.4004    3.6621    0.0000 N   0  0  0  0  0  0  0  0  0  0  0  0
  -17.1494    2.8343    0.0000 C   0  0  0  0  0  0  0  0  0  0  0  0
  -18.1818    1.7461    0.0000 C   0  0  0  0  0  0  0  0  0  0  0  0
  -17.7556    0.3080    0.0000 C   0  0  0  0  0  0  0  0  0  0  0  0
  -18.7880   -0.7802    0.0000 C   0  0  0  0  0  0  0  0  0  0  0  0
  -18.3618   -2.2184    0.0000 N   0  0  0  0  0  0  0  0  0  0  0  0
  -20.2466   -0.4303    0.0000 O   0  0  0  0  0  0  0  0  0  0  0  0
  -15.6908    2.4844    0.0000 C   0  0  0  0  0  0  0  0  0  0  0  0
  -15.2646    1.0462    0.0000 O   0  0  0  0  0  0  0  0  0  0  0  0
  -14.6585    3.5726    0.0000 N   0  0  0  0  0  0  0  0  0  0  0  0
  -13.1999    3.2226    0.0000 C   0  0  0  0  0  0  0  0  0  0  0  0
  -13.1085    4.7198    0.0000 C   0  0  0  0  0  0  0  0  0  0  0  0
  -11.6946    5.2207    0.0000 C   0  0  0  0  0  0  0  0  0  0  0  0
  -13.5347    6.1580    0.0000 C   0  0  0  0  0  0  0  0  0  0  0  0
  -12.5023    7.2462    0.0000 C   0  0  0  0  0  0  0  0  0  0  0  0
  -11.9489    2.3949    0.0000 C   0  0  0  0  0  0  0  0  0  0  0  0
  -10.6982    3.2230    0.0000 O   0  0  0  0  0  0  0  0  0  0  0  0
  -12.0403    0.8976    0.0000 N   0  0  0  0  0  0  0  0  0  0  0  0
  -10.7893    0.0699    0.0000 C   0  0  0  0  0  0  0  0  0  0  0  0
  -10.1914    1.4456    0.0000 C   0  0  0  0  0  0  0  0  0  0  0  0
   -8.7011    1.6156    0.0000 C   0  0  0  0  0  0  0  0  0  0  0  0
   -8.1031    2.9912    0.0000 C   0  0  0  0  0  0  0  0  0  0  0  0
   -6.6128    3.1612    0.0000 C   0  0  0  0  0  0  0  0  0  0  0  0
   -6.0149    4.5369    0.0000 N   0  0  0  0  0  0  0  0  0  0  0  0
   -9.8970   -1.1358    0.0000 C   0  0  0  0  0  0  0  0  0  0  0  0
   -8.4066   -0.9658    0.0000 O   0  0  0  0  0  0  0  0  0  0  0  0
  -10.4949   -2.5114    0.0000 N   0  0  0  0  0  0  0  0  0  0  0  0
   -9.6025   -3.7171    0.0000 C   0  0  0  0  0  0  0  0  0  0  0  0
  -10.9448   -4.3866    0.0000 C   0  0  0  0  0  0  0  0  0  0  0  0
  -10.8530   -5.8838    0.0000 C   0  0  0  0  0  0  0  0  0  0  0  0
  -12.4351   -4.5566    0.0000 C   0  0  0  0  0  0  0  0  0  0  0  0
  -13.0331   -5.9323    0.0000 C   0  0  0  0  0  0  0  0  0  0  0  0
   -8.3516   -4.5448    0.0000 C   0  0  0  0  0  0  0  0  0  0  0  0
   -8.6248   -6.0198    0.0000 O   0  0  0  0  0  0  0  0  0  0  0  0
   -7.0092   -3.8754    0.0000 N   0  0  0  0  0  0  0  0  0  0  0  0
   -5.7583   -4.7031    0.0000 C   0  0  0  0  0  0  0  0  0  0  0  0
   -6.7907   -5.7913    0.0000 C   0  0  0  0  0  0  0  0  0  0  0  0
   -6.3645   -7.2295    0.0000 C   0  0  0  0  0  0  0  0  0  0  0  0
   -4.9504   -7.7300    0.0000 C   0  0  0  0  0  0  0  0  0  0  0  0
   -4.9895   -9.2295    0.0000 N   0  0  0  0  0  0  0  0  0  0  0  0
   -6.4277   -9.6557    0.0000 C   0  0  0  0  0  0  0  0  0  0  0  0
   -7.0733  -11.0097    0.0000 C   0  0  0  0  0  0  0  0  0  0  0  0
   -8.5686  -11.1276    0.0000 C   0  0  0  0  0  0  0  0  0  0  0  0
   -9.4184   -9.8915    0.0000 C   0  0  0  0  0  0  0  0  0  0  0  0
   -8.7728   -8.5375    0.0000 C   0  0  0  0  0  0  0  0  0  0  0  0
   -7.2775   -8.4196    0.0000 C   0  0  0  0  0  0  0  0  0  0  0  0
   -4.2997   -5.0531    0.0000 C   0  0  0  0  0  0  0  0  0  0  0  0
   -3.8735   -6.4912    0.0000 O   0  0  0  0  0  0  0  0  0  0  0  0
   -3.2673   -3.9649    0.0000 N   0  0  0  0  0  0  0  0  0  0  0  0
   -1.8087   -4.3148    0.0000 C   0  0  0  0  0  0  0  0  0  0  0  0
   -2.1429   -2.8525    0.0000 C   0  0  0  0  0  0  0  0  0  0  0  0
   -2.1942   -1.3534    0.0000 C   0  0  0  0  0  0  0  0  0  0  0  0
   -1.9609    0.1283    0.0000 C   0  0  0  0  0  0  0  0  0  0  0  0
   -1.4515    1.5392    0.0000 C   0  0  0  0  0  0  0  0  0  0  0  0
   -2.7700   -5.4663    0.0000 C   0  0  0  0  0  0  0  0  0  0  0  0
   -1.2039   -5.6875    0.0000 C   0  0  0  0  0  0  0  0  0  0  0  0
   -2.4137   -6.5742    0.0000 O   0  0  0  0  0  0  0  0  0  0  0  0
   -0.3502   -6.9209    0.0000 N   0  0  0  0  0  0  0  0  0  0  0  0
    0.7215   -7.9704    0.0000 C   0  0  0  0  0  0  0  0  0  0  0  0
    0.5354   -9.4588    0.0000 C   0  0  0  0  0  0  0  0  0  0  0  0
   -0.8467  -10.0418    0.0000 C   0  0  0  0  0  0  0  0  0  0  0  0
   -1.0329  -11.5302    0.0000 C   0  0  0  0  0  0  0  0  0  0  0  0
   -2.4149  -12.1132    0.0000 N   0  0  0  0  0  0  0  0  0  0  0  0
    0.1631  -12.4356    0.0000 O   0  0  0  0  0  0  0  0  0  0  0  0
    1.9724   -8.7981    0.0000 C   0  0  0  0  0  0  0  0  0  0  0  0
    1.4340  -10.1982    0.0000 O   0  0  0  0  0  0  0  0  0  0  0  0
    3.3574   -9.3742    0.0000 N   0  0  0  0  0  0  0  0  0  0  0  0
    4.8264   -9.6777    0.0000 C   0  0  0  0  0  0  0  0  0  0  0  0
    5.4745  -11.0305    0.0000 C   0  0  0  0  0  0  0  0  0  0  0  0
    4.6270  -12.2681    0.0000 C   0  0  0  0  0  0  0  0  0  0  0  0
    5.2751  -13.6209    0.0000 N   0  0  0  0  0  0  0  0  0  0  0  0
    3.1314  -12.1530    0.0000 O   0  0  0  0  0  0  0  0  0  0  0  0
    6.3263   -9.6977    0.0000 C   0  0  0  0  0  0  0  0  0  0  0  0
    6.6302  -11.1666    0.0000 O   0  0  0  0  0  0  0  0  0  0  0  0
    7.8028   -9.4335    0.0000 N   0  0  0  0  0  0  0  0  0  0  0  0
    9.2027   -8.8947    0.0000 C   0  0  0  0  0  0  0  0  0  0  0  0
   10.4793   -9.6823    0.0000 C   0  0  0  0  0  0  0  0  0  0  0  0
   10.4354  -11.1817    0.0000 C   0  0  0  0  0  0  0  0  0  0  0  0
   11.7120  -11.9693    0.0000 C   0  0  0  0  0  0  0  0  0  0  0  0
   11.6682  -13.4687    0.0000 N   0  0  0  0  0  0  0  0  0  0  0  0
   12.9448  -14.2563    0.0000 C   0  0  0  0  0  0  0  0  0  0  0  0
   12.9009  -15.7557    0.0000 N   0  0  0  0  0  0  0  0  0  0  0  0
   14.2652  -13.5446    0.0000 N   0  0  0  0  0  0  0  0  0  0  0  0
   10.4753   -8.1006    0.0000 C   0  0  0  0  0  0  0  0  0  0  0  0
   11.5251   -9.1720    0.0000 O   0  0  0  0  0  0  0  0  0  0  0  0
   11.5746   -7.0801    0.0000 N   0  0  0  0  0  0  0  0  0  0  0  0
   12.4609   -5.8700    0.0000 C   0  0  0  0  0  0  0  0  0  0  0  0
   13.9607   -5.8424    0.0000 C   0  0  0  0  0  0  0  0  0  0  0  0
   14.7344   -7.1274    0.0000 C   0  0  0  0  0  0  0  0  0  0  0  0
   16.2342   -7.0999    0.0000 C   0  0  0  0  0  0  0  0  0  0  0  0
   17.0079   -8.3849    0.0000 N   0  0  0  0  0  0  0  0  0  0  0  0
   18.5077   -8.3573    0.0000 C   0  0  0  0  0  0  0  0  0  0  0  0
   19.2814   -9.6424    0.0000 N   0  0  0  0  0  0  0  0  0  0  0  0
   19.2337   -7.0447    0.0000 N   0  0  0  0  0  0  0  0  0  0  0  0
   13.1022   -4.5140    0.0000 C   0  0  0  0  0  0  0  0  0  0  0  0
   14.5646   -4.8477    0.0000 O   0  0  0  0  0  0  0  0  0  0  0  0
   13.4753   -3.0611    0.0000 N   0  0  0  0  0  0  0  0  0  0  0  0
   13.5667   -1.5639    0.0000 C   0  0  0  0  0  0  0  0  0  0  0  0
   14.8134   -0.7299    0.0000 C   0  0  0  0  0  0  0  0  0  0  0  0
   16.1591   -1.3926    0.0000 C   0  0  0  0  0  0  0  0  0  0  0  0
   17.4059   -0.5586    0.0000 S   0  0  0  0  0  0  0  0  0  0  0  0
   18.7515   -1.2213    0.0000 C   0  0  0  0  0  0  0  0  0  0  0  0
   13.3730   -0.0764    0.0000 C   0  0  0  0  0  0  0  0  0  0  0  0
   14.7837    0.4335    0.0000 O   0  0  0  0  0  0  0  0  0  0  0  0
   12.9014    1.3475    0.0000 N   0  0  0  0  0  0  0  0  0  0  0  0
   12.1688    2.6564    0.0000 C   0  0  0  0  0  0  0  0  0  0  0  0
   12.7668    4.0321    0.0000 C   0  0  0  0  0  0  0  0  0  0  0  0
   14.2571    4.2021    0.0000 C   0  0  0  0  0  0  0  0  0  0  0  0
   14.8550    5.5778    0.0000 C   0  0  0  0  0  0  0  0  0  0  0  0
   16.3454    5.7478    0.0000 C   0  0  0  0  0  0  0  0  0  0  0  0
   16.9433    7.1234    0.0000 N   0  0  0  0  0  0  0  0  0  0  0  0
   11.2018    3.8031    0.0000 C   0  0  0  0  0  0  0  0  0  0  0  0
   12.1128    4.9947    0.0000 O   0  0  0  0  0  0  0  0  0  0  0  0
   10.0352    4.7460    0.0000 N   0  0  0  0  0  0  0  0  0  0  0  0
    8.7112    5.4510    0.0000 C   0  0  0  0  0  0  0  0  0  0  0  0
    7.2777    5.8928    0.0000 C   0  0  0  0  0  0  0  0  0  0  0  0
    5.7866    6.0553    0.0000 C   0  0  0  0  0  0  0  0  0  0  0  0
    4.2916    5.9327    0.0000 C   0  0  0  0  0  0  0  0  0  0  0  0
    2.8468    5.5294    0.0000 C   0  0  0  0  0  0  0  0  0  0  0  0
    1.5045    4.8599    0.0000 C   0  0  0  0  0  0  0  0  0  0  0  0
    0.3132    3.9485    0.0000 C   0  0  0  0  0  0  0  0  0  0  0  0
   -0.6842    2.8281    0.0000 C   0  0  0  0  0  0  0  0  0  0  0  0
    9.9309    6.3242    0.0000 C   0  0  0  0  0  0  0  0  0  0  0  0
    8.4705    6.9316    0.0000 C   0  0  0  0  0  0  0  0  0  0  0  0
    7.2383    7.7870    0.0000 O   0  0  0  0  0  0  0  0  0  0  0  0
    9.6323    7.8804    0.0000 N   0  0  0  0  0  0  0  0  0  0  0  0
    9.3916    9.3609    0.0000 C   0  0  0  0  0  0  0  0  0  0  0  0
    8.6590   10.6698    0.0000 C   0  0  0  0  0  0  0  0  0  0  0  0
    9.4263   11.9588    0.0000 C   0  0  0  0  0  0  0  0  0  0  0  0
    8.6937   13.2677    0.0000 C   0  0  0  0  0  0  0  0  0  0  0  0
    9.4610   14.5566    0.0000 C   0  0  0  0  0  0  0  0  0  0  0  0
    8.7284   15.8655    0.0000 N   0  0  0  0  0  0  0  0  0  0  0  0
   10.5534   10.3097    0.0000 C   0  0  0  0  0  0  0  0  0  0  0  0
   10.4950   11.8085    0.0000 O   0  0  0  0  0  0  0  0  0  0  0  0
   11.9560    9.7779    0.0000 N   0  0  0  0  0  0  0  0  0  0  0  0
   13.1178   10.7266    0.0000 C   0  0  0  0  0  0  0  0  0  0  0  0
   13.8851   12.0155    0.0000 C   0  0  0  0  0  0  0  0  0  0  0  0
   13.1525   13.3245    0.0000 C   0  0  0  0  0  0  0  0  0  0  0  0
   13.9198   14.6134    0.0000 C   0  0  0  0  0  0  0  0  0  0  0  0
   13.1872   15.9223    0.0000 C   0  0  0  0  0  0  0  0  0  0  0  0
   13.9545   17.2112    0.0000 N   0  0  0  0  0  0  0  0  0  0  0  0
   14.5204   10.1948    0.0000 C   0  0  0  0  0  0  0  0  0  0  0  0
   15.7892   10.9949    0.0000 O   0  0  0  0  0  0  0  0  0  0  0  0
   14.7611    8.7142    0.0000 O   0  0  0  0  0  0  0  0  0  0  0  0
  -21.8770   11.5643    0.0000 H   0  0  0  0  0  0  0  0  0  0  0  0
  -23.9653   10.0187    0.0000 H   0  0  0  0  0  0  0  0  0  0  0  0
  -20.5502   10.0712    0.0000 H   0  0  0  0  0  0  0  0  0  0  0  0
  -20.3316    8.1553    0.0000 H   0  0  0  0  0  0  0  0  0  0  0  0
  -23.4314    8.4351    0.0000 H   0  0  0  0  0  0  0  0  0  0  0  0
  -23.2129    6.5191    0.0000 H   0  0  0  0  0  0  0  0  0  0  0  0
  -22.8701    5.0345    0.0000 H   0  0  0  0  0  0  0  0  0  0  0  0
  -19.9612    4.9085    0.0000 H   0  0  0  0  0  0  0  0  0  0  0  0
  -23.8359    3.1638    0.0000 H   0  0  0  0  0  0  0  0  0  0  0  0
  -22.7285    4.0533    0.0000 H   0  0  0  0  0  0  0  0  0  0  0  0
  -22.0011    0.2155    0.0000 H   0  0  0  0  0  0  0  0  0  0  0  0
  -20.9370    1.8237    0.0000 H   0  0  0  0  0  0  0  0  0  0  0  0
  -25.2600    0.8142    0.0000 H   0  0  0  0  0  0  0  0  0  0  0  0
  -24.3680    2.3597    0.0000 H   0  0  0  0  0  0  0  0  0  0  0  0
  -22.6101   -1.3408    0.0000 H   0  0  0  0  0  0  0  0  0  0  0  0
  -26.6370   -3.3492    0.0000 H   0  0  0  0  0  0  0  0  0  0  0  0
  -24.0437   -3.5075    0.0000 H   0  0  0  0  0  0  0  0  0  0  0  0
  -27.7966   -1.0243    0.0000 H   0  0  0  0  0  0  0  0  0  0  0  0
  -26.3629    1.1424    0.0000 H   0  0  0  0  0  0  0  0  0  0  0  0
  -18.3090    5.1593    0.0000 H   0  0  0  0  0  0  0  0  0  0  0  0
  -16.5515    4.2100    0.0000 H   0  0  0  0  0  0  0  0  0  0  0  0
  -19.3075    1.0008    0.0000 H   0  0  0  0  0  0  0  0  0  0  0  0
  -19.0257    2.4415    0.0000 H   0  0  0  0  0  0  0  0  0  0  0  0
  -16.8632   -0.8977    0.0000 H   0  0  0  0  0  0  0  0  0  0  0  0
  -16.4133    0.9774    0.0000 H   0  0  0  0  0  0  0  0  0  0  0  0
  -19.3942   -3.3066    0.0000 H   0  0  0  0  0  0  0  0  0  0  0  0
  -16.9032   -2.5684    0.0000 H   0  0  0  0  0  0  0  0  0  0  0  0
  -15.2753    4.6193    0.0000 H   0  0  0  0  0  0  0  0  0  0  0  0
  -13.7978    1.8469    0.0000 H   0  0  0  0  0  0  0  0  0  0  0  0
  -14.3234    4.7303    0.0000 H   0  0  0  0  0  0  0  0  0  0  0  0
  -11.5631    6.1956    0.0000 H   0  0  0  0  0  0  0  0  0  0  0  0
  -10.2758    5.5593    0.0000 H   0  0  0  0  0  0  0  0  0  0  0  0
  -11.3400    3.9511    0.0000 H   0  0  0  0  0  0  0  0  0  0  0  0
  -14.4271    7.3636    0.0000 H   0  0  0  0  0  0  0  0  0  0  0  0
  -14.9486    5.6571    0.0000 H   0  0  0  0  0  0  0  0  0  0  0  0
  -12.9285    8.6844    0.0000 H   0  0  0  0  0  0  0  0  0  0  0  0
  -11.1600    7.9157    0.0000 H   0  0  0  0  0  0  0  0  0  0  0  0
  -11.8187    6.6829    0.0000 H   0  0  0  0  0  0  0  0  0  0  0  0
  -13.3826    0.2282    0.0000 H   0  0  0  0  0  0  0  0  0  0  0  0
  -11.8217   -1.0183    0.0000 H   0  0  0  0  0  0  0  0  0  0  0  0
  -10.1000    2.9428    0.0000 H   0  0  0  0  0  0  0  0  0  0  0  0
  -11.5220    2.1381    0.0000 H   0  0  0  0  0  0  0  0  0  0  0  0
   -7.2960    1.0904    0.0000 H   0  0  0  0  0  0  0  0  0  0  0  0
   -8.7924    0.1184    0.0000 H   0  0  0  0  0  0  0  0  0  0  0  0
   -8.1949    4.4884    0.0000 H   0  0  0  0  0  0  0  0  0  0  0  0
   -9.5082    3.5164    0.0000 H   0  0  0  0  0  0  0  0  0  0  0  0
   -5.1542    2.8113    0.0000 H   0  0  0  0  0  0  0  0  0  0  0  0
   -6.5210    1.6641    0.0000 H   0  0  0  0  0  0  0  0  0  0  0  0
   -4.5245    4.7069    0.0000 H   0  0  0  0  0  0  0  0  0  0  0  0
   -5.9235    6.0341    0.0000 H   0  0  0  0  0  0  0  0  0  0  0  0
   -7.4199    5.0621    0.0000 H   0  0  0  0  0  0  0  0  0  0  0  0
  -11.9821   -2.3158    0.0000 H   0  0  0  0  0  0  0  0  0  0  0  0
   -8.5701   -2.6289    0.0000 H   0  0  0  0  0  0  0  0  0  0  0  0
  -11.5432   -3.0111    0.0000 H   0  0  0  0  0  0  0  0  0  0  0  0
  -12.2855   -6.7342    0.0000 H   0  0  0  0  0  0  0  0  0  0  0  0
  -10.6100   -7.3220    0.0000 H   0  0  0  0  0  0  0  0  0  0  0  0
   -9.5458   -5.7138    0.0000 H   0  0  0  0  0  0  0  0  0  0  0  0
  -13.8937   -4.2066    0.0000 H   0  0  0  0  0  0  0  0  0  0  0  0
  -12.5270   -3.0594    0.0000 H   0  0  0  0  0  0  0  0  0  0  0  0
  -14.5234   -6.1023    0.0000 H   0  0  0  0  0  0  0  0  0  0  0  0
  -13.1245   -7.4295    0.0000 H   0  0  0  0  0  0  0  0  0  0  0  0
  -11.7025   -6.6248    0.0000 H   0  0  0  0  0  0  0  0  0  0  0  0
   -6.9179   -2.3781    0.0000 H   0  0  0  0  0  0  0  0  0  0  0  0
   -5.1604   -3.3274    0.0000 H   0  0  0  0  0  0  0  0  0  0  0  0
   -8.0414   -6.6194    0.0000 H   0  0  0  0  0  0  0  0  0  0  0  0
   -7.9483   -4.8374    0.0000 H   0  0  0  0  0  0  0  0  0  0  0  0
   -3.5455   -7.2046    0.0000 H   0  0  0  0  0  0  0  0  0  0  0  0
   -3.7994  -10.1425    0.0000 H   0  0  0  0  0  0  0  0  0  0  0  0
   -6.2235  -12.2457    0.0000 H   0  0  0  0  0  0  0  0  0  0  0  0
   -9.2142  -12.4815    0.0000 H   0  0  0  0  0  0  0  0  0  0  0  0
  -10.9138  -10.0094    0.0000 H   0  0  0  0  0  0  0  0  0  0  0  0
   -9.6226   -7.3014    0.0000 H   0  0  0  0  0  0  0  0  0  0  0  0
   -4.0289   -2.6726    0.0000 H   0  0  0  0  0  0  0  0  0  0  0  0
   -3.4997   -3.4920    0.0000 H   0  0  0  0  0  0  0  0  0  0  0  0
   -3.5089   -2.2328    0.0000 H   0  0  0  0  0  0  0  0  0  0  0  0
   -3.6476   -1.7245    0.0000 H   0  0  0  0  0  0  0  0  0  0  0  0
   -3.5148   -0.6421    0.0000 H   0  0  0  0  0  0  0  0  0  0  0  0
   -3.4362   -0.1428    0.0000 H   0  0  0  0  0  0  0  0  0  0  0  0
   -2.9988    1.2113    0.0000 H   0  0  0  0  0  0  0  0  0  0  0  0
   -2.8075    2.1804    0.0000 H   0  0  0  0  0  0  0  0  0  0  0  0
   -4.2661   -5.5748    0.0000 H   0  0  0  0  0  0  0  0  0  0  0  0
   -3.1037   -6.9287    0.0000 H   0  0  0  0  0  0  0  0  0  0  0  0
   -1.6884   -6.5057    0.0000 H   0  0  0  0  0  0  0  0  0  0  0  0
   -1.6061   -7.7410    0.0000 H   0  0  0  0  0  0  0  0  0  0  0  0
   -0.7444   -8.2882    0.0000 H   0  0  0  0  0  0  0  0  0  0  0  0
    0.6888  -10.9509    0.0000 H   0  0  0  0  0  0  0  0  0  0  0  0
    2.0071   -9.7484    0.0000 H   0  0  0  0  0  0  0  0  0  0  0  0
   -2.3448  -10.1169    0.0000 H   0  0  0  0  0  0  0  0  0  0  0  0
   -1.5248   -8.7038    0.0000 H   0  0  0  0  0  0  0  0  0  0  0  0
   -2.6011  -13.6016    0.0000 H   0  0  0  0  0  0  0  0  0  0  0  0
   -3.6109  -11.2078    0.0000 H   0  0  0  0  0  0  0  0  0  0  0  0
    2.9156  -10.8076    0.0000 H   0  0  0  0  0  0  0  0  0  0  0  0
    3.9021  -10.8591    0.0000 H   0  0  0  0  0  0  0  0  0  0  0  0
    6.4103  -12.2028    0.0000 H   0  0  0  0  0  0  0  0  0  0  0  0
    6.8692  -10.4784    0.0000 H   0  0  0  0  0  0  0  0  0  0  0  0
    4.4276  -14.8585    0.0000 H   0  0  0  0  0  0  0  0  0  0  0  0
    6.7707  -13.7360    0.0000 H   0  0  0  0  0  0  0  0  0  0  0  0
    8.0270  -10.9167    0.0000 H   0  0  0  0  0  0  0  0  0  0  0  0
    8.8828  -10.3602    0.0000 H   0  0  0  0  0  0  0  0  0  0  0  0
   11.9482   -9.9858    0.0000 H   0  0  0  0  0  0  0  0  0  0  0  0
   11.3541   -8.4638    0.0000 H   0  0  0  0  0  0  0  0  0  0  0  0
    9.8814  -12.5756    0.0000 H   0  0  0  0  0  0  0  0  0  0  0  0
    8.9367  -11.2426    0.0000 H   0  0  0  0  0  0  0  0  0  0  0  0
   13.1810  -12.2728    0.0000 H   0  0  0  0  0  0  0  0  0  0  0  0
   12.4318  -10.6533    0.0000 H   0  0  0  0  0  0  0  0  0  0  0  0
   10.3478  -14.1804    0.0000 H   0  0  0  0  0  0  0  0  0  0  0  0
   14.1775  -16.5433    0.0000 H   0  0  0  0  0  0  0  0  0  0  0  0
   11.5805  -16.4674    0.0000 H   0  0  0  0  0  0  0  0  0  0  0  0
   15.5417  -14.3322    0.0000 H   0  0  0  0  0  0  0  0  0  0  0  0
   14.3090  -12.0452    0.0000 H   0  0  0  0  0  0  0  0  0  0  0  0
   12.5651   -8.2066    0.0000 H   0  0  0  0  0  0  0  0  0  0  0  0
   12.9842   -7.2758    0.0000 H   0  0  0  0  0  0  0  0  0  0  0  0
   15.3606   -5.3036    0.0000 H   0  0  0  0  0  0  0  0  0  0  0  0
   14.0379   -4.3444    0.0000 H   0  0  0  0  0  0  0  0  0  0  0  0
   15.0220   -8.5996    0.0000 H   0  0  0  0  0  0  0  0  0  0  0  0
   13.5065   -7.9890    0.0000 H   0  0  0  0  0  0  0  0  0  0  0  0
   17.6340   -6.5610    0.0000 H   0  0  0  0  0  0  0  0  0  0  0  0
   16.1282   -5.6036    0.0000 H   0  0  0  0  0  0  0  0  0  0  0  0
   16.2819   -9.6975    0.0000 H   0  0  0  0  0  0  0  0  0  0  0  0
   20.7812   -9.6148    0.0000 H   0  0  0  0  0  0  0  0  0  0  0  0
   18.5554  -10.9550    0.0000 H   0  0  0  0  0  0  0  0  0  0  0  0
   20.7334   -7.0172    0.0000 H   0  0  0  0  0  0  0  0  0  0  0  0
   18.4599   -5.7597    0.0000 H   0  0  0  0  0  0  0  0  0  0  0  0
   14.9176   -3.4733    0.0000 H   0  0  0  0  0  0  0  0  0  0  0  0
   14.7669   -2.4636    0.0000 H   0  0  0  0  0  0  0  0  0  0  0  0
   15.8407    0.3632    0.0000 H   0  0  0  0  0  0  0  0  0  0  0  0
   14.0685    0.5721    0.0000 H   0  0  0  0  0  0  0  0  0  0  0  0
   17.0572   -2.5940    0.0000 H   0  0  0  0  0  0  0  0  0  0  0  0
   15.5919   -2.7812    0.0000 H   0  0  0  0  0  0  0  0  0  0  0  0
   19.9983   -0.3873    0.0000 H   0  0  0  0  0  0  0  0  0  0  0  0
   19.7894   -2.3043    0.0000 H   0  0  0  0  0  0  0  0  0  0  0  0
   18.0193   -2.5304    0.0000 H   0  0  0  0  0  0  0  0  0  0  0  0
   14.3375    1.7805    0.0000 H   0  0  0  0  0  0  0  0  0  0  0  0
   13.6649    2.5484    0.0000 H   0  0  0  0  0  0  0  0  0  0  0  0
   12.8581    5.5293    0.0000 H   0  0  0  0  0  0  0  0  0  0  0  0
   11.4362    4.7246    0.0000 H   0  0  0  0  0  0  0  0  0  0  0  0
   15.6622    3.6769    0.0000 H   0  0  0  0  0  0  0  0  0  0  0  0
   14.5307    2.7273    0.0000 H   0  0  0  0  0  0  0  0  0  0  0  0
   14.7632    7.0750    0.0000 H   0  0  0  0  0  0  0  0  0  0  0  0
   13.4500    6.1029    0.0000 H   0  0  0  0  0  0  0  0  0  0  0  0
   17.8040    5.3978    0.0000 H   0  0  0  0  0  0  0  0  0  0  0  0
   16.4372    4.2506    0.0000 H   0  0  0  0  0  0  0  0  0  0  0  0
   18.4336    7.2934    0.0000 H   0  0  0  0  0  0  0  0  0  0  0  0
   17.0347    8.6207    0.0000 H   0  0  0  0  0  0  0  0  0  0  0  0
   15.5382    7.6486    0.0000 H   0  0  0  0  0  0  0  0  0  0  0  0
   11.0092    5.8867    0.0000 H   0  0  0  0  0  0  0  0  0  0  0  0
    6.7612    7.3011    0.0000 H   0  0  0  0  0  0  0  0  0  0  0  0
    8.0161    7.1985    0.0000 H   0  0  0  0  0  0  0  0  0  0  0  0
    5.1752    7.4251    0.0000 H   0  0  0  0  0  0  0  0  0  0  0  0
    6.2645    7.4771    0.0000 H   0  0  0  0  0  0  0  0  0  0  0  0
    3.4321    7.1620    0.0000 H   0  0  0  0  0  0  0  0  0  0  0  0
    4.6715    7.3838    0.0000 H   0  0  0  0  0  0  0  0  0  0  0  0
    1.7702    6.5738    0.0000 H   0  0  0  0  0  0  0  0  0  0  0  0
    2.9453    7.0261    0.0000 H   0  0  0  0  0  0  0  0  0  0  0  0
    0.2497    5.6817    0.0000 H   0  0  0  0  0  0  0  0  0  0  0  0
    1.3179    6.3482    0.0000 H   0  0  0  0  0  0  0  0  0  0  0  0
   -1.1336    4.3445    0.0000 H   0  0  0  0  0  0  0  0  0  0  0  0
   -0.1517    5.3746    0.0000 H   0  0  0  0  0  0  0  0  0  0  0  0
   -1.8943    3.7144    0.0000 H   0  0  0  0  0  0  0  0  0  0  0  0
   10.1501    7.8081    0.0000 H   0  0  0  0  0  0  0  0  0  0  0  0
   11.3756    6.7275    0.0000 H   0  0  0  0  0  0  0  0  0  0  0  0
   10.8870    5.1685    0.0000 H   0  0  0  0  0  0  0  0  0  0  0  0
   11.0892    7.5235    0.0000 H   0  0  0  0  0  0  0  0  0  0  0  0
    7.9753    8.8667    0.0000 H   0  0  0  0  0  0  0  0  0  0  0  0
    7.4120   11.5035    0.0000 H   0  0  0  0  0  0  0  0  0  0  0  0
    7.4972    9.7211    0.0000 H   0  0  0  0  0  0  0  0  0  0  0  0
   10.6951   12.7588    0.0000 H   0  0  0  0  0  0  0  0  0  0  0  0
   10.8380   11.4516    0.0000 H   0  0  0  0  0  0  0  0  0  0  0  0
    7.4467   14.1013    0.0000 H   0  0  0  0  0  0  0  0  0  0  0  0
    7.4249   12.4676    0.0000 H   0  0  0  0  0  0  0  0  0  0  0  0
   10.6228   15.5054    0.0000 H   0  0  0  0  0  0  0  0  0  0  0  0
   10.7080   13.7230    0.0000 H   0  0  0  0  0  0  0  0  0  0  0  0
    9.4957   17.1544    0.0000 H   0  0  0  0  0  0  0  0  0  0  0  0
    7.5923   16.8450    0.0000 H   0  0  0  0  0  0  0  0  0  0  0  0
    7.4596   15.0655    0.0000 H   0  0  0  0  0  0  0  0  0  0  0  0
   12.1967    8.2973    0.0000 H   0  0  0  0  0  0  0  0  0  0  0  0
   11.8708   11.5603    0.0000 H   0  0  0  0  0  0  0  0  0  0  0  0
   15.1539   12.8156    0.0000 H   0  0  0  0  0  0  0  0  0  0  0  0
   15.1321   11.1819    0.0000 H   0  0  0  0  0  0  0  0  0  0  0  0
   11.9055   14.1581    0.0000 H   0  0  0  0  0  0  0  0  0  0  0  0
   11.8837   12.5244    0.0000 H   0  0  0  0  0  0  0  0  0  0  0  0
   15.1886   15.4134    0.0000 H   0  0  0  0  0  0  0  0  0  0  0  0
   15.1668   13.7797    0.0000 H   0  0  0  0  0  0  0  0  0  0  0  0
   12.0511   16.9017    0.0000 H   0  0  0  0  0  0  0  0  0  0  0  0
   11.9184   15.1222    0.0000 H   0  0  0  0  0  0  0  0  0  0  0  0
   13.2219   18.5201    0.0000 H   0  0  0  0  0  0  0  0  0  0  0  0
   15.1163   18.1600    0.0000 H   0  0  0  0  0  0  0  0  0  0  0  0
   15.2015   16.3776    0.0000 H   0  0  0  0  0  0  0  0  0  0  0  0
  1  2  1  0
  2  3  1  0
  3  4  1  0
  4  5  2  0
  4  6  1  0
  6  7  1  0
  7  8  1  0
  8  9  1  0
  9 10  1  0
 10 11  1  0
 11 12  1  0
 12 13  2  3
 12 14  1  0
  7 15  1  0
 15 16  2  0
 15 17  1  0
 17 18  1  0
 18 19  1  0
 19 20  1  0
 20 21  1  0
 21 22  1  0
 21 23  2  0
 18 24  1  0
 24 25  2  0
 24 26  1  0
 26 27  1  0
 27 28  1  0
 28 29  1  0
 28 30  1  0
 30 31  1  0
 27 32  1  0
 32 33  2  0
 32 34  1  0
 34 35  1  0
 35 36  1  0
 36 37  1  0
 37 38  1  0
 38 39  1  0
 39 40  1  0
 35 41  1  0
 41 42  2  0
 41 43  1  0
 43 44  1  0
 44 45  1  0
 45 46  1  0
 45 47  1  0
 47 48  1  0
 44 49  1  0
 49 50  2  0
 49 51  1  0
 51 52  1  0
 52 53  1  0
 53 54  1  0
 54 55  2  0
 55 56  1  0
 56 57  1  0
 57 58  2  0
 58 59  1  0
 59 60  2  0
 60 61  1  0
 61 62  2  0
 52 63  1  0
 63 64  2  0
 63 65  1  0
 66 65  1  6
 66 67  1  0
 67 68  1  0
 68 69  1  0
 69 70  1  0
 66 71  1  0
 66 72  1  0
 72 73  2  0
 72 74  1  0
 74 75  1  0
 75 76  1  0
 76 77  1  0
 77 78  1  0
 78 79  1  0
 78 80  2  0
 75 81  1  0
 81 82  2  0
 81 83  1  0
 83 84  1  0
 84 85  1  0
 85 86  1  0
 86 87  1  0
 86 88  2  0
 84 89  1  0
 89 90  2  0
 89 91  1  0
 91 92  1  0
 92 93  1  0
 93 94  1  0
 94 95  1  0
 95 96  1  0
 96 97  1  0
 97 98  2  3
 97 99  1  0
 92100  1  0
100101  2  0
100102  1  0
102103  1  0
103104  1  0
104105  1  0
105106  1  0
106107  1  0
107108  1  0
108109  2  3
108110  1  0
103111  1  0
111112  2  0
111113  1  0
113114  1  0
114115  1  0
115116  1  0
116117  1  0
117118  1  0
114119  1  0
119120  2  0
119121  1  0
121122  1  0
122123  1  0
123124  1  0
124125  1  0
125126  1  0
126127  1  0
122128  1  0
128129  2  0
128130  1  0
130131  1  0
131132  1  0
132133  1  0
133134  1  0
134135  1  0
135136  1  0
136137  1  0
137138  1  0
131139  1  0
131140  1  1
140141  2  0
140142  1  0
142143  1  0
143144  1  0
144145  1  0
145146  1  0
146147  1  0
147148  1  0
143149  1  0
149150  2  0
149151  1  0
151152  1  0
152153  1  0
153154  1  0
154155  1  0
155156  1  0
156157  1  0
152158  1  0
158159  2  0
158160  1  0
 62 54  1  0
 62 57  1  0
 70138  2  0
  1161  1  0
  1162  1  0
  2163  1  0
  2164  1  0
  3165  1  0
  3166  1  0
  6167  1  0
  7168  1  6
  8169  1  0
  8170  1  0
  9171  1  0
  9172  1  0
 10173  1  0
 10174  1  0
 11175  1  0
 13176  1  0
 13177  1  0
 14178  1  0
 14179  1  0
 17180  1  0
 18181  1  6
 19182  1  0
 19183  1  0
 20184  1  0
 20185  1  0
 22186  1  0
 22187  1  0
 26188  1  0
 27189  1  1
 28190  1  1
 29191  1  0
 29192  1  0
 29193  1  0
 30194  1  0
 30195  1  0
 31196  1  0
 31197  1  0
 31198  1  0
 34199  1  0
 35200  1  1
 36201  1  0
 36202  1  0
 37203  1  0
 37204  1  0
 38205  1  0
 38206  1  0
 39207  1  0
 39208  1  0
 40209  1  0
 40210  1  0
 40211  1  0
 43212  1  0
 44213  1  6
 45214  1  6
 46215  1  0
 46216  1  0
 46217  1  0
 47218  1  0
 47219  1  0
 48220  1  0
 48221  1  0
 48222  1  0
 51223  1  0
 52224  1  6
 53225  1  0
 53226  1  0
 55227  1  0
 56228  1  0
 58229  1  0
 59230  1  0
 60231  1  0
 61232  1  0
 65233  1  0
 67234  1  0
 67235  1  0
 68236  1  0
 68237  1  0
 69238  1  0
 69239  1  0
 70240  1  0
 71241  1  0
 71242  1  0
 71243  1  0
 74244  1  0
 75245  1  6
 76246  1  0
 76247  1  0
 77248  1  0
 77249  1  0
 79250  1  0
 79251  1  0
 83252  1  0
 84253  1  6
 85254  1  0
 85255  1  0
 87256  1  0
 87257  1  0
 91258  1  0
 92259  1  6
 93260  1  0
 93261  1  0
 94262  1  0
 94263  1  0
 95264  1  0
 95265  1  0
 96266  1  0
 98267  1  0
 98268  1  0
 99269  1  0
 99270  1  0
102271  1  0
103272  1  6
104273  1  0
104274  1  0
105275  1  0
105276  1  0
106277  1  0
106278  1  0
107279  1  0
109280  1  0
109281  1  0
110282  1  0
110283  1  0
113284  1  0
114285  1  6
115286  1  0
115287  1  0
116288  1  0
116289  1  0
118290  1  0
118291  1  0
118292  1  0
121293  1  0
122294  1  6
123295  1  0
123296  1  0
124297  1  0
124298  1  0
125299  1  0
125300  1  0
126301  1  0
126302  1  0
127303  1  0
127304  1  0
127305  1  0
130306  1  0
132307  1  0
132308  1  0
133309  1  0
133310  1  0
134311  1  0
134312  1  0
135313  1  0
135314  1  0
136315  1  0
136316  1  0
137317  1  0
137318  1  0
138319  1  0
139320  1  0
139321  1  0
139322  1  0
142323  1  0
143324  1  1
144325  1  0
144326  1  0
145327  1  0
145328  1  0
146329  1  0
146330  1  0
147331  1  0
147332  1  0
148333  1  0
148334  1  0
148335  1  0
151336  1  0
152337  1  1
153338  1  0
153339  1  0
154340  1  0
154341  1  0
155342  1  0
155343  1  0
156344  1  0
156345  1  0
157346  1  0
157347  1  0
157348  1  0
M  CHG  8  13   1  40   1  98   1 109   1 127   1 148   1 157   1 160  -1
M  END
