
     RDKit          2D

457463  0  0  0  0  0  0  0  0999 V2000
  -45.8187   -3.7503    0.0000 C   0  0  0  0  0  0  0  0  0  0  0  0
  -46.7169   -4.9517    0.0000 N   0  0  0  0  0  0  0  0  0  0  0  0
  -48.2064   -4.7746    0.0000 C   0  0  0  0  0  0  0  0  0  0  0  0
  -48.7977   -3.3961    0.0000 C   0  0  0  0  0  0  0  0  0  0  0  0
  -50.2872   -3.2189    0.0000 C   0  0  0  0  0  0  0  0  0  0  0  0
  -51.1854   -4.4203    0.0000 C   0  0  0  0  0  0  0  0  0  0  0  0
  -50.5940   -5.7988    0.0000 C   0  0  0  0  0  0  0  0  0  0  0  0
  -49.1045   -5.9760    0.0000 C   0  0  0  0  0  0  0  0  0  0  0  0
  -51.7223   -6.7872    0.0000 C   0  0  0  0  0  0  0  0  0  0  0  0
  -53.0110   -6.0195    0.0000 O   0  0  0  0  0  0  0  0  0  0  0  0
  -52.6792   -4.5567    0.0000 C   0  0  0  0  0  0  0  0  0  0  0  0
  -53.6675   -3.4284    0.0000 O   0  0  0  0  0  0  0  0  0  0  0  0
  -52.9478   -7.6522    0.0000 C   0  0  0  0  0  0  0  0  0  0  0  0
  -52.8114   -9.1460    0.0000 C   0  0  0  0  0  0  0  0  0  0  0  0
  -54.0368  -10.0111    0.0000 C   0  0  0  0  0  0  0  0  0  0  0  0
  -55.3987   -9.3823    0.0000 C   0  0  0  0  0  0  0  0  0  0  0  0
  -55.5351   -7.8885    0.0000 C   0  0  0  0  0  0  0  0  0  0  0  0
  -54.3096   -7.0235    0.0000 C   0  0  0  0  0  0  0  0  0  0  0  0
  -56.6241  -10.2473    0.0000 O   0  0  0  0  0  0  0  0  0  0  0  0
  -51.4495   -9.7748    0.0000 O   0  0  0  0  0  0  0  0  0  0  0  0
  -50.2241   -8.9097    0.0000 C   0  0  0  0  0  0  0  0  0  0  0  0
  -50.3605   -7.4160    0.0000 C   0  0  0  0  0  0  0  0  0  0  0  0
  -49.0714   -7.2480    0.0000 C   0  0  0  0  0  0  0  0  0  0  0  0
  -48.3450   -7.5834    0.0000 C   0  0  0  0  0  0  0  0  0  0  0  0
  -48.2723   -8.3800    0.0000 C   0  0  0  0  0  0  0  0  0  0  0  0
  -48.9258   -8.8414    0.0000 C   0  0  0  0  0  0  0  0  0  0  0  0
  -46.2749   -9.3022    0.0000 O   0  0  0  0  0  0  0  0  0  0  0  0
  -46.4101   -2.3718    0.0000 S   0  0  0  0  0  0  0  0  0  0  0  0
  -44.3292   -3.9275    0.0000 N   0  0  0  0  0  0  0  0  0  0  0  0
  -43.4310   -2.7261    0.0000 C   0  0  0  0  0  0  0  0  0  0  0  0
  -41.9415   -2.9032    0.0000 C   0  0  0  0  0  0  0  0  0  0  0  0
  -41.0434   -1.7018    0.0000 C   0  0  0  0  0  0  0  0  0  0  0  0
  -41.6347   -0.3233    0.0000 O   0  0  0  0  0  0  0  0  0  0  0  0
  -39.5539   -1.8790    0.0000 N   0  0  0  0  0  0  0  0  0  0  0  0
  -38.6557   -0.6776    0.0000 C   0  0  0  0  0  0  0  0  0  0  0  0
  -38.2226    0.7585    0.0000 C   0  0  0  0  0  0  0  0  0  0  0  0
  -37.0944    1.7470    0.0000 O   0  0  0  0  0  0  0  0  0  0  0  0
  -37.1662   -0.8547    0.0000 C   0  0  0  0  0  0  0  0  0  0  0  0
  -36.7473   -2.2950    0.0000 O   0  0  0  0  0  0  0  0  0  0  0  0
  -36.2681    0.3467    0.0000 N   0  0  0  0  0  0  0  0  0  0  0  0
  -34.7786    0.1695    0.0000 C   0  0  0  0  0  0  0  0  0  0  0  0
  -33.9258   -1.0645    0.0000 C   0  0  0  0  0  0  0  0  0  0  0  0
  -32.7472   -1.9923    0.0000 C   0  0  0  0  0  0  0  0  0  0  0  0
  -31.3474   -2.5315    0.0000 C   0  0  0  0  0  0  0  0  0  0  0  0
  -29.8510   -2.6342    0.0000 C   0  0  0  0  0  0  0  0  0  0  0  0
  -35.7035   -1.0114    0.0000 C   0  0  0  0  0  0  0  0  0  0  0  0
  -35.2297    1.6001    0.0000 C   0  0  0  0  0  0  0  0  0  0  0  0
  -36.1120    1.6783    0.0000 O   0  0  0  0  0  0  0  0  0  0  0  0
  -35.2392    3.1000    0.0000 N   0  0  0  0  0  0  0  0  0  0  0  0
  -34.8061    4.5361    0.0000 C   0  0  0  0  0  0  0  0  0  0  0  0
  -35.5963    5.8111    0.0000 C   0  0  0  0  0  0  0  0  0  0  0  0
  -37.0955    5.7643    0.0000 C   0  0  0  0  0  0  0  0  0  0  0  0
  -37.8857    7.0393    0.0000 C   0  0  0  0  0  0  0  0  0  0  0  0
  -39.3850    6.9924    0.0000 O   0  0  0  0  0  0  0  0  0  0  0  0
  -37.1767    8.3611    0.0000 O   0  0  0  0  0  0  0  0  0  0  0  0
  -33.9689    5.7808    0.0000 C   0  0  0  0  0  0  0  0  0  0  0  0
  -35.0749    6.7941    0.0000 O   0  0  0  0  0  0  0  0  0  0  0  0
  -32.8021    6.7234    0.0000 N   0  0  0  0  0  0  0  0  0  0  0  0
  -31.4092    7.2802    0.0000 C   0  0  0  0  0  0  0  0  0  0  0  0
  -30.9051    8.6929    0.0000 C   0  0  0  0  0  0  0  0  0  0  0  0
  -31.8765    9.8359    0.0000 C   0  0  0  0  0  0  0  0  0  0  0  0
  -31.3724   11.2487    0.0000 C   0  0  0  0  0  0  0  0  0  0  0  0
  -33.1802   10.5777    0.0000 C   0  0  0  0  0  0  0  0  0  0  0  0
  -29.9142    7.4017    0.0000 C   0  0  0  0  0  0  0  0  0  0  0  0
  -29.8115    8.8982    0.0000 O   0  0  0  0  0  0  0  0  0  0  0  0
  -28.4497    7.0772    0.0000 N   0  0  0  0  0  0  0  0  0  0  0  0
  -27.1460    6.3354    0.0000 C   0  0  0  0  0  0  0  0  0  0  0  0
  -25.7271    6.8220    0.0000 C   0  0  0  0  0  0  0  0  0  0  0  0
  -25.4392    8.2941    0.0000 C   0  0  0  0  0  0  0  0  0  0  0  0
  -26.1188    5.2422    0.0000 C   0  0  0  0  0  0  0  0  0  0  0  0
  -24.8848    6.0950    0.0000 O   0  0  0  0  0  0  0  0  0  0  0  0
  -25.4595    3.8949    0.0000 N   0  0  0  0  0  0  0  0  0  0  0  0
  -25.2266    2.4131    0.0000 C   0  0  0  0  0  0  0  0  0  0  0  0
  -25.4408    0.9285    0.0000 C   0  0  0  0  0  0  0  0  0  0  0  0
  -26.0831   -0.4271    0.0000 C   0  0  0  0  0  0  0  0  0  0  0  0
  -27.0964   -1.5330    0.0000 C   0  0  0  0  0  0  0  0  0  0  0  0
  -28.3907   -2.2912    0.0000 C   0  0  0  0  0  0  0  0  0  0  0  0
  -23.9717    3.2348    0.0000 C   0  0  0  0  0  0  0  0  0  0  0  0
  -23.9614    1.6072    0.0000 C   0  0  0  0  0  0  0  0  0  0  0  0
  -23.6622    0.1374    0.0000 O   0  0  0  0  0  0  0  0  0  0  0  0
  -22.6310    2.2999    0.0000 N   0  0  0  0  0  0  0  0  0  0  0  0
  -21.3658    1.4941    0.0000 C   0  0  0  0  0  0  0  0  0  0  0  0
  -20.4526    0.3041    0.0000 C   0  0  0  0  0  0  0  0  0  0  0  0
  -21.0265   -1.0818    0.0000 C   0  0  0  0  0  0  0  0  0  0  0  0
  -20.1133   -2.2717    0.0000 C   0  0  0  0  0  0  0  0  0  0  0  0
  -20.6873   -3.6576    0.0000 O   0  0  0  0  0  0  0  0  0  0  0  0
  -18.6262   -2.0758    0.0000 O   0  0  0  0  0  0  0  0  0  0  0  0
  -20.0354    2.1868    0.0000 C   0  0  0  0  0  0  0  0  0  0  0  0
  -19.9700    3.6854    0.0000 O   0  0  0  0  0  0  0  0  0  0  0  0
  -18.7702    1.3809    0.0000 N   0  0  0  0  0  0  0  0  0  0  0  0
  -17.4397    2.0736    0.0000 C   0  0  0  0  0  0  0  0  0  0  0  0
  -16.4264    3.1796    0.0000 C   0  0  0  0  0  0  0  0  0  0  0  0
  -16.1746    1.2678    0.0000 C   0  0  0  0  0  0  0  0  0  0  0  0
  -16.2399   -0.2308    0.0000 O   0  0  0  0  0  0  0  0  0  0  0  0
  -14.8441    1.9605    0.0000 N   0  0  0  0  0  0  0  0  0  0  0  0
  -13.5790    1.1546    0.0000 C   0  0  0  0  0  0  0  0  0  0  0  0
  -12.6658   -0.0354    0.0000 C   0  0  0  0  0  0  0  0  0  0  0  0
  -13.2397   -1.4212    0.0000 C   0  0  0  0  0  0  0  0  0  0  0  0
  -12.4559   -2.7001    0.0000 C   0  0  0  0  0  0  0  0  0  0  0  0
  -13.4300   -3.8408    0.0000 N   0  0  0  0  0  0  0  0  0  0  0  0
  -14.8158   -3.2669    0.0000 C   0  0  0  0  0  0  0  0  0  0  0  0
  -14.6982   -1.7715    0.0000 N   0  0  0  0  0  0  0  0  0  0  0  0
  -12.2485    1.8473    0.0000 C   0  0  0  0  0  0  0  0  0  0  0  0
  -12.1832    3.3459    0.0000 O   0  0  0  0  0  0  0  0  0  0  0  0
  -10.9834    1.0414    0.0000 N   0  0  0  0  0  0  0  0  0  0  0  0
   -9.6529    1.7342    0.0000 C   0  0  0  0  0  0  0  0  0  0  0  0
   -8.6396    2.8401    0.0000 C   0  0  0  0  0  0  0  0  0  0  0  0
   -7.1751    2.5156    0.0000 C   0  0  0  0  0  0  0  0  0  0  0  0
   -6.1618    3.6216    0.0000 N   0  0  0  0  0  0  0  0  0  0  0  0
   -6.7585    1.8359    0.0000 O   0  0  0  0  0  0  0  0  0  0  0  0
   -8.3878    0.9283    0.0000 C   0  0  0  0  0  0  0  0  0  0  0  0
   -8.4531   -0.5703    0.0000 O   0  0  0  0  0  0  0  0  0  0  0  0
   -7.0573    1.6210    0.0000 N   0  0  0  0  0  0  0  0  0  0  0  0
   -5.7922    0.8151    0.0000 C   0  0  0  0  0  0  0  0  0  0  0  0
   -4.8789   -0.3748    0.0000 C   0  0  0  0  0  0  0  0  0  0  0  0
   -3.3918   -0.1789    0.0000 C   0  0  0  0  0  0  0  0  0  0  0  0
   -2.4786   -1.3689    0.0000 C   0  0  0  0  0  0  0  0  0  0  0  0
   -2.0613    0.5138    0.0000 C   0  0  0  0  0  0  0  0  0  0  0  0
   -4.4617    1.5078    0.0000 C   0  0  0  0  0  0  0  0  0  0  0  0
   -4.2142    2.9873    0.0000 O   0  0  0  0  0  0  0  0  0  0  0  0
   -3.1965    0.7020    0.0000 N   0  0  0  0  0  0  0  0  0  0  0  0
   -1.8661    1.3947    0.0000 C   0  0  0  0  0  0  0  0  0  0  0  0
   -0.8528    2.5007    0.0000 C   0  0  0  0  0  0  0  0  0  0  0  0
    0.6307    2.7226    0.0000 S   0  0  0  0  0  0  0  0  0  0  0  0
   -0.6009    0.5888    0.0000 C   0  0  0  0  0  0  0  0  0  0  0  0
   -0.3017   -0.8810    0.0000 O   0  0  0  0  0  0  0  0  0  0  0  0
    0.7295    1.2815    0.0000 N   0  0  0  0  0  0  0  0  0  0  0  0
    1.9947    0.4757    0.0000 C   0  0  0  0  0  0  0  0  0  0  0  0
    2.9079   -0.7143    0.0000 C   0  0  0  0  0  0  0  0  0  0  0  0
    4.0654   -1.6684    0.0000 O   0  0  0  0  0  0  0  0  0  0  0  0
    2.3340   -2.1002    0.0000 C   0  0  0  0  0  0  0  0  0  0  0  0
    3.3251    1.1684    0.0000 C   0  0  0  0  0  0  0  0  0  0  0  0
    3.3905    2.6670    0.0000 O   0  0  0  0  0  0  0  0  0  0  0  0
    4.5903    0.3625    0.0000 N   0  0  0  0  0  0  0  0  0  0  0  0
    5.9208    1.0552    0.0000 C   0  0  0  0  0  0  0  0  0  0  0  0
    6.9341    2.1612    0.0000 C   0  0  0  0  0  0  0  0  0  0  0  0
    8.3985    1.8366    0.0000 C   0  0  0  0  0  0  0  0  0  0  0  0
    9.4118    2.9426    0.0000 C   0  0  0  0  0  0  0  0  0  0  0  0
    9.6637    1.0308    0.0000 C   0  0  0  0  0  0  0  0  0  0  0  0
    7.1859    0.2494    0.0000 C   0  0  0  0  0  0  0  0  0  0  0  0
    7.1206   -1.2492    0.0000 O   0  0  0  0  0  0  0  0  0  0  0  0
    8.5164    0.9421    0.0000 N   0  0  0  0  0  0  0  0  0  0  0  0
    9.7815    0.1362    0.0000 C   0  0  0  0  0  0  0  0  0  0  0  0
   10.6947   -1.0538    0.0000 C   0  0  0  0  0  0  0  0  0  0  0  0
   10.1208   -2.4396    0.0000 C   0  0  0  0  0  0  0  0  0  0  0  0
   11.0340   -3.6296    0.0000 C   0  0  0  0  0  0  0  0  0  0  0  0
    9.1075   -3.5456    0.0000 C   0  0  0  0  0  0  0  0  0  0  0  0
   11.1120    0.8289    0.0000 C   0  0  0  0  0  0  0  0  0  0  0  0
   11.3595    2.3084    0.0000 O   0  0  0  0  0  0  0  0  0  0  0  0
   12.3771    0.0231    0.0000 N   0  0  0  0  0  0  0  0  0  0  0  0
   13.7076    0.7158    0.0000 C   0  0  0  0  0  0  0  0  0  0  0  0
   14.7209    1.8217    0.0000 C   0  0  0  0  0  0  0  0  0  0  0  0
   16.1854    1.4972    0.0000 C   0  0  0  0  0  0  0  0  0  0  0  0
   17.1987    2.6032    0.0000 C   0  0  0  0  0  0  0  0  0  0  0  0
   18.6918    2.4595    0.0000 O   0  0  0  0  0  0  0  0  0  0  0  0
   16.7475    4.0337    0.0000 O   0  0  0  0  0  0  0  0  0  0  0  0
   14.9727   -0.0901    0.0000 C   0  0  0  0  0  0  0  0  0  0  0  0
   14.9074   -1.5887    0.0000 O   0  0  0  0  0  0  0  0  0  0  0  0
   16.3032    0.6026    0.0000 N   0  0  0  0  0  0  0  0  0  0  0  0
   17.5683   -0.2033    0.0000 C   0  0  0  0  0  0  0  0  0  0  0  0
   18.4816   -1.3932    0.0000 C   0  0  0  0  0  0  0  0  0  0  0  0
   17.9076   -2.7791    0.0000 C   0  0  0  0  0  0  0  0  0  0  0  0
   18.8208   -3.9691    0.0000 N   0  0  0  0  0  0  0  0  0  0  0  0
   16.4205   -2.9750    0.0000 O   0  0  0  0  0  0  0  0  0  0  0  0
   18.8988    0.4895    0.0000 C   0  0  0  0  0  0  0  0  0  0  0  0
   19.1463    1.9689    0.0000 O   0  0  0  0  0  0  0  0  0  0  0  0
   20.1639   -0.3164    0.0000 N   0  0  0  0  0  0  0  0  0  0  0  0
   21.4944    0.3763    0.0000 C   0  0  0  0  0  0  0  0  0  0  0  0
   22.5077    1.4823    0.0000 C   0  0  0  0  0  0  0  0  0  0  0  0
   22.7596   -0.4296    0.0000 C   0  0  0  0  0  0  0  0  0  0  0  0
   22.6942   -1.9281    0.0000 O   0  0  0  0  0  0  0  0  0  0  0  0
   24.0900    0.2631    0.0000 N   0  0  0  0  0  0  0  0  0  0  0  0
   25.3552   -0.5427    0.0000 C   0  0  0  0  0  0  0  0  0  0  0  0
   26.2684   -1.7327    0.0000 C   0  0  0  0  0  0  0  0  0  0  0  0
   25.5298   -3.0383    0.0000 C   0  0  0  0  0  0  0  0  0  0  0  0
   27.5335   -2.5386    0.0000 C   0  0  0  0  0  0  0  0  0  0  0  0
   27.4682   -4.0371    0.0000 C   0  0  0  0  0  0  0  0  0  0  0  0
   26.6856    0.1500    0.0000 C   0  0  0  0  0  0  0  0  0  0  0  0
   26.7510    1.6486    0.0000 O   0  0  0  0  0  0  0  0  0  0  0  0
   27.9508   -0.6559    0.0000 N   0  0  0  0  0  0  0  0  0  0  0  0
   29.2813    0.0368    0.0000 C   0  0  0  0  0  0  0  0  0  0  0  0
   30.2946    1.1428    0.0000 C   0  0  0  0  0  0  0  0  0  0  0  0
   31.7590    0.8183    0.0000 C   0  0  0  0  0  0  0  0  0  0  0  0
   32.7723    1.9242    0.0000 C   0  0  0  0  0  0  0  0  0  0  0  0
   34.2654    1.7806    0.0000 N   0  0  0  0  0  0  0  0  0  0  0  0
   32.3212    3.3548    0.0000 O   0  0  0  0  0  0  0  0  0  0  0  0
   30.5464   -0.7690    0.0000 C   0  0  0  0  0  0  0  0  0  0  0  0
   30.4811   -2.2676    0.0000 O   0  0  0  0  0  0  0  0  0  0  0  0
   31.8769   -0.0763    0.0000 N   0  0  0  0  0  0  0  0  0  0  0  0
   33.1420   -0.8822    0.0000 C   0  0  0  0  0  0  0  0  0  0  0  0
   34.0552   -2.0722    0.0000 C   0  0  0  0  0  0  0  0  0  0  0  0
   33.4813   -3.4580    0.0000 C   0  0  0  0  0  0  0  0  0  0  0  0
   34.3945   -4.6480    0.0000 O   0  0  0  0  0  0  0  0  0  0  0  0
   31.9941   -3.6539    0.0000 O   0  0  0  0  0  0  0  0  0  0  0  0
   34.4725   -0.1895    0.0000 C   0  0  0  0  0  0  0  0  0  0  0  0
   34.7200    1.2900    0.0000 O   0  0  0  0  0  0  0  0  0  0  0  0
   35.7376   -0.9953    0.0000 N   0  0  0  0  0  0  0  0  0  0  0  0
   37.0681   -0.3026    0.0000 C   0  0  0  0  0  0  0  0  0  0  0  0
   38.0814    0.8034    0.0000 C   0  0  0  0  0  0  0  0  0  0  0  0
   38.6553    2.1892    0.0000 O   0  0  0  0  0  0  0  0  0  0  0  0
   39.5745    0.6597    0.0000 C   0  0  0  0  0  0  0  0  0  0  0  0
   38.3332   -1.1085    0.0000 C   0  0  0  0  0  0  0  0  0  0  0  0
   38.2679   -2.6071    0.0000 O   0  0  0  0  0  0  0  0  0  0  0  0
   39.6637   -0.4158    0.0000 N   0  0  0  0  0  0  0  0  0  0  0  0
   40.9288   -1.2217    0.0000 C   0  0  0  0  0  0  0  0  0  0  0  0
   41.8421   -2.4116    0.0000 C   0  0  0  0  0  0  0  0  0  0  0  0
   41.2681   -3.7975    0.0000 C   0  0  0  0  0  0  0  0  0  0  0  0
   42.2593   -0.5289    0.0000 C   0  0  0  0  0  0  0  0  0  0  0  0
   42.3246    0.9696    0.0000 O   0  0  0  0  0  0  0  0  0  0  0  0
   43.5244   -1.3348    0.0000 N   0  0  0  0  0  0  0  0  0  0  0  0
   44.8549   -0.6421    0.0000 C   0  0  0  0  0  0  0  0  0  0  0  0
   45.8682    0.4639    0.0000 C   0  0  0  0  0  0  0  0  0  0  0  0
   47.3327    0.1393    0.0000 C   0  0  0  0  0  0  0  0  0  0  0  0
   48.3460    1.2453    0.0000 C   0  0  0  0  0  0  0  0  0  0  0  0
   49.8105    0.9207    0.0000 N   0  0  0  0  0  0  0  0  0  0  0  0
   50.8238    2.0267    0.0000 C   0  0  0  0  0  0  0  0  0  0  0  0
   52.2378    1.5261    0.0000 N   0  0  0  0  0  0  0  0  0  0  0  0
   50.3726    3.4573    0.0000 N   0  0  0  0  0  0  0  0  0  0  0  0
   46.1201   -1.4480    0.0000 C   0  0  0  0  0  0  0  0  0  0  0  0
   46.0547   -2.9465    0.0000 O   0  0  0  0  0  0  0  0  0  0  0  0
   47.4505   -0.7553    0.0000 N   0  0  0  0  0  0  0  0  0  0  0  0
   48.7157   -1.5611    0.0000 C   0  0  0  0  0  0  0  0  0  0  0  0
   49.6289   -2.7511    0.0000 C   0  0  0  0  0  0  0  0  0  0  0  0
   49.0550   -4.1369    0.0000 C   0  0  0  0  0  0  0  0  0  0  0  0
   49.9682   -5.3269    0.0000 C   0  0  0  0  0  0  0  0  0  0  0  0
   49.3942   -6.7128    0.0000 O   0  0  0  0  0  0  0  0  0  0  0  0
   51.4553   -5.1310    0.0000 O   0  0  0  0  0  0  0  0  0  0  0  0
   50.0461   -0.8684    0.0000 C   0  0  0  0  0  0  0  0  0  0  0  0
   50.4721    0.5698    0.0000 O   0  0  0  0  0  0  0  0  0  0  0  0
   51.3113   -1.6743    0.0000 N   0  0  0  0  0  0  0  0  0  0  0  0
   52.6417   -0.9816    0.0000 C   0  0  0  0  0  0  0  0  0  0  0  0
   53.6551    0.1244    0.0000 C   0  0  0  0  0  0  0  0  0  0  0  0
   55.1195   -0.2001    0.0000 C   0  0  0  0  0  0  0  0  0  0  0  0
   56.1328    0.9058    0.0000 C   0  0  0  0  0  0  0  0  0  0  0  0
   57.5973    0.5813    0.0000 N   0  0  0  0  0  0  0  0  0  0  0  0
   55.6817    2.3364    0.0000 O   0  0  0  0  0  0  0  0  0  0  0  0
   53.9069   -1.7874    0.0000 C   0  0  0  0  0  0  0  0  0  0  0  0
   55.3119   -1.2621    0.0000 O   0  0  0  0  0  0  0  0  0  0  0  0
   53.8416   -3.2860    0.0000 O   0  0  0  0  0  0  0  0  0  0  0  0
  -45.9619   -6.2479    0.0000 H   0  0  0  0  0  0  0  0  0  0  0  0
  -47.8996   -2.1947    0.0000 H   0  0  0  0  0  0  0  0  0  0  0  0
  -50.8786   -1.8404    0.0000 H   0  0  0  0  0  0  0  0  0  0  0  0
  -48.1972   -7.1704    0.0000 H   0  0  0  0  0  0  0  0  0  0  0  0
  -53.9004  -11.5048    0.0000 H   0  0  0  0  0  0  0  0  0  0  0  0
  -56.8970   -7.2598    0.0000 H   0  0  0  0  0  0  0  0  0  0  0  0
  -54.4461   -5.5297    0.0000 H   0  0  0  0  0  0  0  0  0  0  0  0
  -57.9860   -9.6186    0.0000 H   0  0  0  0  0  0  0  0  0  0  0  0
  -49.2714   -5.0571    0.0000 H   0  0  0  0  0  0  0  0  0  0  0  0
  -46.4514   -6.4705    0.0000 H   0  0  0  0  0  0  0  0  0  0  0  0
  -48.7258  -11.0323    0.0000 H   0  0  0  0  0  0  0  0  0  0  0  0
  -46.1385  -10.7960    0.0000 H   0  0  0  0  0  0  0  0  0  0  0  0
  -43.7379   -5.3060    0.0000 H   0  0  0  0  0  0  0  0  0  0  0  0
  -42.9979   -1.2900    0.0000 H   0  0  0  0  0  0  0  0  0  0  0  0
  -44.7701   -2.0502    0.0000 H   0  0  0  0  0  0  0  0  0  0  0  0
  -40.6024   -3.5791    0.0000 H   0  0  0  0  0  0  0  0  0  0  0  0
  -42.3746   -4.3393    0.0000 H   0  0  0  0  0  0  0  0  0  0  0  0
  -38.9625   -3.2575    0.0000 H   0  0  0  0  0  0  0  0  0  0  0  0
  -39.9948   -0.0017    0.0000 H   0  0  0  0  0  0  0  0  0  0  0  0
  -38.3068    2.2562    0.0000 H   0  0  0  0  0  0  0  0  0  0  0  0
  -39.7121    0.9357    0.0000 H   0  0  0  0  0  0  0  0  0  0  0  0
  -36.4313    2.6250    0.0000 H   0  0  0  0  0  0  0  0  0  0  0  0
  -36.8594    1.7252    0.0000 H   0  0  0  0  0  0  0  0  0  0  0  0
  -35.3574   -1.5121    0.0000 H   0  0  0  0  0  0  0  0  0  0  0  0
  -34.2868   -2.5204    0.0000 H   0  0  0  0  0  0  0  0  0  0  0  0
  -33.8705   -2.9864    0.0000 H   0  0  0  0  0  0  0  0  0  0  0  0
  -32.8461   -3.4891    0.0000 H   0  0  0  0  0  0  0  0  0  0  0  0
  -32.2782   -3.7079    0.0000 H   0  0  0  0  0  0  0  0  0  0  0  0
  -30.8255   -3.9378    0.0000 H   0  0  0  0  0  0  0  0  0  0  0  0
  -29.7294   -4.1293    0.0000 H   0  0  0  0  0  0  0  0  0  0  0  0
  -35.1958   -2.5981    0.0000 H   0  0  0  0  0  0  0  0  0  0  0  0
  -36.5843   -2.1740    0.0000 H   0  0  0  0  0  0  0  0  0  0  0  0
  -36.8677   -0.3932    0.0000 H   0  0  0  0  0  0  0  0  0  0  0  0
  -36.6866    3.4936    0.0000 H   0  0  0  0  0  0  0  0  0  0  0  0
  -36.2582    4.1604    0.0000 H   0  0  0  0  0  0  0  0  0  0  0  0
  -35.9027    7.2795    0.0000 H   0  0  0  0  0  0  0  0  0  0  0  0
  -34.3796    6.6884    0.0000 H   0  0  0  0  0  0  0  0  0  0  0  0
  -38.4884    5.2075    0.0000 H   0  0  0  0  0  0  0  0  0  0  0  0
  -36.9703    4.2695    0.0000 H   0  0  0  0  0  0  0  0  0  0  0  0
  -33.5602    8.0177    0.0000 H   0  0  0  0  0  0  0  0  0  0  0  0
  -32.6084    8.1813    0.0000 H   0  0  0  0  0  0  0  0  0  0  0  0
  -29.8145    9.7228    0.0000 H   0  0  0  0  0  0  0  0  0  0  0  0
  -29.4606    8.2887    0.0000 H   0  0  0  0  0  0  0  0  0  0  0  0
  -32.9671    8.8061    0.0000 H   0  0  0  0  0  0  0  0  0  0  0  0
  -32.1972   12.5015    0.0000 H   0  0  0  0  0  0  0  0  0  0  0  0
  -30.4154   12.4038    0.0000 H   0  0  0  0  0  0  0  0  0  0  0  0
  -29.9879   10.6713    0.0000 H   0  0  0  0  0  0  0  0  0  0  0  0
  -33.3725   12.0654    0.0000 H   0  0  0  0  0  0  0  0  0  0  0  0
  -34.6591   10.8289    0.0000 H   0  0  0  0  0  0  0  0  0  0  0  0
  -33.6844    9.1650    0.0000 H   0  0  0  0  0  0  0  0  0  0  0  0
  -27.9105    8.4769    0.0000 H   0  0  0  0  0  0  0  0  0  0  0  0
  -27.1891    7.8347    0.0000 H   0  0  0  0  0  0  0  0  0  0  0  0
  -24.2274    6.7941    0.0000 H   0  0  0  0  0  0  0  0  0  0  0  0
  -25.1426    5.4406    0.0000 H   0  0  0  0  0  0  0  0  0  0  0  0
  -24.0203    8.7808    0.0000 H   0  0  0  0  0  0  0  0  0  0  0  0
  -25.6721    9.7759    0.0000 H   0  0  0  0  0  0  0  0  0  0  0  0
  -26.9243    8.5047    0.0000 H   0  0  0  0  0  0  0  0  0  0  0  0
  -24.0289    4.3461    0.0000 H   0  0  0  0  0  0  0  0  0  0  0  0
  -24.4694   -0.2145    0.0000 H   0  0  0  0  0  0  0  0  0  0  0  0
  -23.9418    0.9827    0.0000 H   0  0  0  0  0  0  0  0  0  0  0  0
  -25.3281   -1.7232    0.0000 H   0  0  0  0  0  0  0  0  0  0  0  0
  -24.6347   -0.8171    0.0000 H   0  0  0  0  0  0  0  0  0  0  0  0
  -26.9377   -3.0246    0.0000 H   0  0  0  0  0  0  0  0  0  0  0  0
  -25.7393   -2.1720    0.0000 H   0  0  0  0  0  0  0  0  0  0  0  0
  -27.8339   -3.6840    0.0000 H   0  0  0  0  0  0  0  0  0  0  0  0
  -22.5088    2.9030    0.0000 H   0  0  0  0  0  0  0  0  0  0  0  0
  -23.2267    4.5367    0.0000 H   0  0  0  0  0  0  0  0  0  0  0  0
  -24.7038    4.5440    0.0000 H   0  0  0  0  0  0  0  0  0  0  0  0
  -22.3835    3.7794    0.0000 H   0  0  0  0  0  0  0  0  0  0  0  0
  -22.5064    0.5199    0.0000 H   0  0  0  0  0  0  0  0  0  0  0  0
  -19.2951   -0.6500    0.0000 H   0  0  0  0  0  0  0  0  0  0  0  0
  -19.2018    1.1320    0.0000 H   0  0  0  0  0  0  0  0  0  0  0  0
  -22.0399   -2.1877    0.0000 H   0  0  0  0  0  0  0  0  0  0  0  0
  -22.3805   -0.4361    0.0000 H   0  0  0  0  0  0  0  0  0  0  0  0
  -18.6524   -0.1145    0.0000 H   0  0  0  0  0  0  0  0  0  0  0  0
  -18.3530    3.2636    0.0000 H   0  0  0  0  0  0  0  0  0  0  0  0
  -14.9429    3.4015    0.0000 H   0  0  0  0  0  0  0  0  0  0  0  0
  -15.8525    4.5655    0.0000 H   0  0  0  0  0  0  0  0  0  0  0  0
  -17.6916    3.9855    0.0000 H   0  0  0  0  0  0  0  0  0  0  0  0
  -14.5966    3.4399    0.0000 H   0  0  0  0  0  0  0  0  0  0  0  0
  -14.5923    0.0486    0.0000 H   0  0  0  0  0  0  0  0  0  0  0  0
  -11.5083   -0.9894    0.0000 H   0  0  0  0  0  0  0  0  0  0  0  0
  -11.4150    0.7926    0.0000 H   0  0  0  0  0  0  0  0  0  0  0  0
  -10.9605   -2.8177    0.0000 H   0  0  0  0  0  0  0  0  0  0  0  0
  -13.0797   -5.2993    0.0000 H   0  0  0  0  0  0  0  0  0  0  0  0
  -16.0947   -4.0507    0.0000 H   0  0  0  0  0  0  0  0  0  0  0  0
  -10.8656   -0.4539    0.0000 H   0  0  0  0  0  0  0  0  0  0  0  0
  -10.5661    2.9241    0.0000 H   0  0  0  0  0  0  0  0  0  0  0  0
   -8.0657    4.2260    0.0000 H   0  0  0  0  0  0  0  0  0  0  0  0
   -9.9047    3.6460    0.0000 H   0  0  0  0  0  0  0  0  0  0  0  0
   -4.6687    3.4779    0.0000 H   0  0  0  0  0  0  0  0  0  0  0  0
   -6.6130    5.0521    0.0000 H   0  0  0  0  0  0  0  0  0  0  0  0
   -6.6313    3.0592    0.0000 H   0  0  0  0  0  0  0  0  0  0  0  0
   -6.8055   -0.2908    0.0000 H   0  0  0  0  0  0  0  0  0  0  0  0
   -4.6055   -1.8497    0.0000 H   0  0  0  0  0  0  0  0  0  0  0  0
   -6.2094   -1.0675    0.0000 H   0  0  0  0  0  0  0  0  0  0  0  0
   -3.1184    1.2959    0.0000 H   0  0  0  0  0  0  0  0  0  0  0  0
   -0.9882   -1.5387    0.0000 H   0  0  0  0  0  0  0  0  0  0  0  0
   -2.0274   -2.7995    0.0000 H   0  0  0  0  0  0  0  0  0  0  0  0
   -3.7147   -2.2186    0.0000 H   0  0  0  0  0  0  0  0  0  0  0  0
   -0.7962   -0.2921    0.0000 H   0  0  0  0  0  0  0  0  0  0  0  0
   -1.0480    1.6197    0.0000 H   0  0  0  0  0  0  0  0  0  0  0  0
   -3.1128    1.5835    0.0000 H   0  0  0  0  0  0  0  0  0  0  0  0
   -2.8973   -0.7679    0.0000 H   0  0  0  0  0  0  0  0  0  0  0  0
   -2.6274    2.6871    0.0000 H   0  0  0  0  0  0  0  0  0  0  0  0
   -0.2788    3.8865    0.0000 H   0  0  0  0  0  0  0  0  0  0  0  0
   -2.1179    3.3065    0.0000 H   0  0  0  0  0  0  0  0  0  0  0  0
    1.6250    3.2821    0.0000 H   0  0  0  0  0  0  0  0  0  0  0  0
    0.9770    2.7610    0.0000 H   0  0  0  0  0  0  0  0  0  0  0  0
    0.8541   -0.4985    0.0000 H   0  0  0  0  0  0  0  0  0  0  0  0
    4.1587    0.1136    0.0000 H   0  0  0  0  0  0  0  0  0  0  0  0
    4.2909   -3.0155    0.0000 H   0  0  0  0  0  0  0  0  0  0  0  0
    3.0953   -3.3926    0.0000 H   0  0  0  0  0  0  0  0  0  0  0  0
    1.3206   -3.2061    0.0000 H   0  0  0  0  0  0  0  0  0  0  0  0
    0.9800   -1.4545    0.0000 H   0  0  0  0  0  0  0  0  0  0  0  0
    4.7081   -1.1328    0.0000 H   0  0  0  0  0  0  0  0  0  0  0  0
    5.0075    2.2452    0.0000 H   0  0  0  0  0  0  0  0  0  0  0  0
    7.3348    3.6067    0.0000 H   0  0  0  0  0  0  0  0  0  0  0  0
    5.6689    2.9671    0.0000 H   0  0  0  0  0  0  0  0  0  0  0  0
    8.5426    0.3436    0.0000 H   0  0  0  0  0  0  0  0  0  0  0  0
   10.9113    2.9821    0.0000 H   0  0  0  0  0  0  0  0  0  0  0  0
    9.9858    4.3285    0.0000 H   0  0  0  0  0  0  0  0  0  0  0  0
    8.2544    3.8967    0.0000 H   0  0  0  0  0  0  0  0  0  0  0  0
    9.9629   -0.4391    0.0000 H   0  0  0  0  0  0  0  0  0  0  0  0
   11.1472    1.2527    0.0000 H   0  0  0  0  0  0  0  0  0  0  0  0
   10.4023    2.3363    0.0000 H   0  0  0  0  0  0  0  0  0  0  0  0
    8.9424    2.3803    0.0000 H   0  0  0  0  0  0  0  0  0  0  0  0
    8.6409   -0.8380    0.0000 H   0  0  0  0  0  0  0  0  0  0  0  0
   11.9599   -1.8596    0.0000 H   0  0  0  0  0  0  0  0  0  0  0  0
   12.0371   -0.3845    0.0000 H   0  0  0  0  0  0  0  0  0  0  0  0
    8.7669   -1.7940    0.0000 H   0  0  0  0  0  0  0  0  0  0  0  0
   10.6333   -5.0751    0.0000 H   0  0  0  0  0  0  0  0  0  0  0  0
   12.2992   -4.4355    0.0000 H   0  0  0  0  0  0  0  0  0  0  0  0
   12.1746   -2.6554    0.0000 H   0  0  0  0  0  0  0  0  0  0  0  0
    9.3809   -5.0205    0.0000 H   0  0  0  0  0  0  0  0  0  0  0  0
    7.7770   -4.2383    0.0000 H   0  0  0  0  0  0  0  0  0  0  0  0
    8.1943   -2.3556    0.0000 H   0  0  0  0  0  0  0  0  0  0  0  0
   12.4949   -1.4723    0.0000 H   0  0  0  0  0  0  0  0  0  0  0  0
   12.7944    1.9057    0.0000 H   0  0  0  0  0  0  0  0  0  0  0  0
   15.2948    3.2076    0.0000 H   0  0  0  0  0  0  0  0  0  0  0  0
   13.4558    2.6276    0.0000 H   0  0  0  0  0  0  0  0  0  0  0  0
   17.4505    0.6913    0.0000 H   0  0  0  0  0  0  0  0  0  0  0  0
   16.3294    0.0041    0.0000 H   0  0  0  0  0  0  0  0  0  0  0  0
   16.7292    2.0408    0.0000 H   0  0  0  0  0  0  0  0  0  0  0  0
   16.5550   -1.3092    0.0000 H   0  0  0  0  0  0  0  0  0  0  0  0
   19.6390   -2.3473    0.0000 H   0  0  0  0  0  0  0  0  0  0  0  0
   19.7324   -0.5653    0.0000 H   0  0  0  0  0  0  0  0  0  0  0  0
   18.2469   -5.3549    0.0000 H   0  0  0  0  0  0  0  0  0  0  0  0
   20.3080   -3.7732    0.0000 H   0  0  0  0  0  0  0  0  0  0  0  0
   20.2818   -1.8118    0.0000 H   0  0  0  0  0  0  0  0  0  0  0  0
   20.5812    1.5663    0.0000 H   0  0  0  0  0  0  0  0  0  0  0  0
   23.9912    1.7042    0.0000 H   0  0  0  0  0  0  0  0  0  0  0  0
   23.0817    2.8681    0.0000 H   0  0  0  0  0  0  0  0  0  0  0  0
   21.2426    2.2881    0.0000 H   0  0  0  0  0  0  0  0  0  0  0  0
   24.3375    1.7426    0.0000 H   0  0  0  0  0  0  0  0  0  0  0  0
   24.2146   -1.5169    0.0000 H   0  0  0  0  0  0  0  0  0  0  0  0
   27.5192   -0.9048    0.0000 H   0  0  0  0  0  0  0  0  0  0  0  0
   26.4448   -4.4304    0.0000 H   0  0  0  0  0  0  0  0  0  0  0  0
   24.6811   -4.2245    0.0000 H   0  0  0  0  0  0  0  0  0  0  0  0
   24.3405   -2.4729    0.0000 H   0  0  0  0  0  0  0  0  0  0  0  0
   28.9980   -2.8631    0.0000 H   0  0  0  0  0  0  0  0  0  0  0  0
   28.4258   -1.3328    0.0000 H   0  0  0  0  0  0  0  0  0  0  0  0
   28.7333   -4.8430    0.0000 H   0  0  0  0  0  0  0  0  0  0  0  0
   26.8943   -5.4230    0.0000 H   0  0  0  0  0  0  0  0  0  0  0  0
   25.9687   -4.0766    0.0000 H   0  0  0  0  0  0  0  0  0  0  0  0
   28.2500   -2.1257    0.0000 H   0  0  0  0  0  0  0  0  0  0  0  0
   28.3680    1.2268    0.0000 H   0  0  0  0  0  0  0  0  0  0  0  0
   30.8685    2.5287    0.0000 H   0  0  0  0  0  0  0  0  0  0  0  0
   29.0294    1.9487    0.0000 H   0  0  0  0  0  0  0  0  0  0  0  0
   33.0242    0.0124    0.0000 H   0  0  0  0  0  0  0  0  0  0  0  0
   31.9031   -0.6748    0.0000 H   0  0  0  0  0  0  0  0  0  0  0  0
   35.2501    2.7057    0.0000 H   0  0  0  0  0  0  0  0  0  0  0  0
   35.0653    0.3193    0.0000 H   0  0  0  0  0  0  0  0  0  0  0  0
   32.3029    1.3619    0.0000 H   0  0  0  0  0  0  0  0  0  0  0  0
   32.1287   -1.9882    0.0000 H   0  0  0  0  0  0  0  0  0  0  0  0
   35.2127   -3.0262    0.0000 H   0  0  0  0  0  0  0  0  0  0  0  0
   35.3060   -1.2442    0.0000 H   0  0  0  0  0  0  0  0  0  0  0  0
   35.8554   -2.4907    0.0000 H   0  0  0  0  0  0  0  0  0  0  0  0
   36.1549    0.8873    0.0000 H   0  0  0  0  0  0  0  0  0  0  0  0
   36.8163    1.6092    0.0000 H   0  0  0  0  0  0  0  0  0  0  0  0
   40.1075    2.5649    0.0000 H   0  0  0  0  0  0  0  0  0  0  0  0
   40.6864    1.4530    0.0000 H   0  0  0  0  0  0  0  0  0  0  0  0
   40.8110   -0.3271    0.0000 H   0  0  0  0  0  0  0  0  0  0  0  0
   39.6899   -1.0143    0.0000 H   0  0  0  0  0  0  0  0  0  0  0  0
   39.9112    1.0637    0.0000 H   0  0  0  0  0  0  0  0  0  0  0  0
   39.7883   -2.1959    0.0000 H   0  0  0  0  0  0  0  0  0  0  0  0
   42.9995   -3.3657    0.0000 H   0  0  0  0  0  0  0  0  0  0  0  0
   43.0929   -1.5837    0.0000 H   0  0  0  0  0  0  0  0  0  0  0  0
   42.1813   -4.9874    0.0000 H   0  0  0  0  0  0  0  0  0  0  0  0
   40.2548   -4.9035    0.0000 H   0  0  0  0  0  0  0  0  0  0  0  0
   39.9142   -3.1518    0.0000 H   0  0  0  0  0  0  0  0  0  0  0  0
   43.6423   -2.8302    0.0000 H   0  0  0  0  0  0  0  0  0  0  0  0
   43.9417    0.5479    0.0000 H   0  0  0  0  0  0  0  0  0  0  0  0
   46.2690    1.9094    0.0000 H   0  0  0  0  0  0  0  0  0  0  0  0
   44.6031    1.2698    0.0000 H   0  0  0  0  0  0  0  0  0  0  0  0
   48.5978   -0.6665    0.0000 H   0  0  0  0  0  0  0  0  0  0  0  0
   47.4767   -1.3537    0.0000 H   0  0  0  0  0  0  0  0  0  0  0  0
   48.9199    2.6312    0.0000 H   0  0  0  0  0  0  0  0  0  0  0  0
   47.1885    2.1994    0.0000 H   0  0  0  0  0  0  0  0  0  0  0  0
   50.5944   -0.3581    0.0000 H   0  0  0  0  0  0  0  0  0  0  0  0
   53.3016    2.8081    0.0000 H   0  0  0  0  0  0  0  0  0  0  0  0
   52.5827    0.2198    0.0000 H   0  0  0  0  0  0  0  0  0  0  0  0
   51.3859    4.5633    0.0000 H   0  0  0  0  0  0  0  0  0  0  0  0
   48.9082    3.7818    0.0000 H   0  0  0  0  0  0  0  0  0  0  0  0
   47.8765    0.6830    0.0000 H   0  0  0  0  0  0  0  0  0  0  0  0
   47.5751   -2.5353    0.0000 H   0  0  0  0  0  0  0  0  0  0  0  0
   50.7864   -3.7052    0.0000 H   0  0  0  0  0  0  0  0  0  0  0  0
   50.8797   -1.9232    0.0000 H   0  0  0  0  0  0  0  0  0  0  0  0
   48.0416   -5.2429    0.0000 H   0  0  0  0  0  0  0  0  0  0  0  0
   47.7010   -3.4913    0.0000 H   0  0  0  0  0  0  0  0  0  0  0  0
   51.4291   -3.1696    0.0000 H   0  0  0  0  0  0  0  0  0  0  0  0
   51.7285    0.2084    0.0000 H   0  0  0  0  0  0  0  0  0  0  0  0
   54.2290    1.5103    0.0000 H   0  0  0  0  0  0  0  0  0  0  0  0
   52.2325    0.6002    0.0000 H   0  0  0  0  0  0  0  0  0  0  0  0
   56.3847   -1.0060    0.0000 H   0  0  0  0  0  0  0  0  0  0  0  0
   55.0805   -1.6996    0.0000 H   0  0  0  0  0  0  0  0  0  0  0  0
   58.6106    1.6873    0.0000 H   0  0  0  0  0  0  0  0  0  0  0  0
   58.0485   -0.8493    0.0000 H   0  0  0  0  0  0  0  0  0  0  0  0
  1  2  1  0
  2  3  1  0
  3  4  2  0
  4  5  1  0
  5  6  2  0
  6  7  1  0
  7  8  2  0
  7  9  1  0
  9 10  1  0
 10 11  1  0
 11 12  2  0
  9 13  1  0
 13 14  1  0
 14 15  2  0
 15 16  1  0
 16 17  2  0
 17 18  1  0
 16 19  1  0
 14 20  1  0
 20 21  1  0
 21 22  2  0
 22 23  1  0
 23 24  2  0
 24 25  1  0
 25 26  2  0
 25 27  1  0
  1 28  2  0
  1 29  1  0
 29 30  1  0
 30 31  1  0
 31 32  1  0
 32 33  2  0
 32 34  1  0
 34 35  1  0
 35 36  1  0
 36 37  1  0
 35 38  1  0
 38 39  2  0
 38 40  1  0
 41 40  1  6
 41 42  1  0
 42 43  1  0
 43 44  1  0
 44 45  1  0
 41 46  1  0
 41 47  1  0
 47 48  2  0
 47 49  1  0
 49 50  1  0
 50 51  1  0
 51 52  1  0
 52 53  1  0
 53 54  2  0
 53 55  1  0
 50 56  1  0
 56 57  2  0
 56 58  1  0
 58 59  1  0
 59 60  1  0
 60 61  1  0
 61 62  1  0
 61 63  1  0
 59 64  1  0
 64 65  2  0
 64 66  1  0
 66 67  1  0
 67 68  1  0
 68 69  1  0
 67 70  1  0
 70 71  2  0
 70 72  1  0
 72 73  1  0
 73 74  1  0
 74 75  1  0
 75 76  1  0
 76 77  1  0
 73 78  1  0
 73 79  1  6
 79 80  2  0
 79 81  1  0
 81 82  1  0
 82 83  1  0
 83 84  1  0
 84 85  1  0
 85 86  2  0
 85 87  1  0
 82 88  1  0
 88 89  2  0
 88 90  1  0
 90 91  1  0
 91 92  1  0
 91 93  1  0
 93 94  2  0
 93 95  1  0
 95 96  1  0
 96 97  1  0
 97 98  1  0
 98 99  2  0
 99100  1  0
100101  1  0
101102  2  0
 96103  1  0
103104  2  0
103105  1  0
105106  1  0
106107  1  0
107108  1  0
108109  1  0
108110  2  0
106111  1  0
111112  2  0
111113  1  0
113114  1  0
114115  1  0
115116  1  0
116117  1  0
116118  1  0
114119  1  0
119120  2  0
119121  1  0
121122  1  0
122123  1  0
123124  1  0
122125  1  0
125126  2  0
125127  1  0
127128  1  0
128129  1  0
129130  1  0
129131  1  0
128132  1  0
132133  2  0
132134  1  0
134135  1  0
135136  1  0
136137  1  0
137138  1  0
137139  1  0
135140  1  0
140141  2  0
140142  1  0
142143  1  0
143144  1  0
144145  1  0
145146  1  0
145147  1  0
143148  1  0
148149  2  0
148150  1  0
150151  1  0
151152  1  0
152153  1  0
153154  1  0
154155  2  0
154156  1  0
151157  1  0
157158  2  0
157159  1  0
159160  1  0
160161  1  0
161162  1  0
162163  1  0
162164  2  0
160165  1  0
165166  2  0
165167  1  0
167168  1  0
168169  1  0
168170  1  0
170171  2  0
170172  1  0
172173  1  0
173174  1  0
174175  1  0
174176  1  0
176177  1  0
173178  1  0
178179  2  0
178180  1  0
180181  1  0
181182  1  0
182183  1  0
183184  1  0
184185  1  0
184186  2  0
181187  1  0
187188  2  0
187189  1  0
189190  1  0
190191  1  0
191192  1  0
192193  2  0
192194  1  0
190195  1  0
195196  2  0
195197  1  0
197198  1  0
198199  1  0
199200  1  0
199201  1  0
198202  1  0
202203  2  0
202204  1  0
204205  1  0
205206  1  0
206207  1  0
205208  1  0
208209  2  0
208210  1  0
210211  1  0
211212  1  0
212213  1  0
213214  1  0
214215  1  0
215216  1  0
216217  2  3
216218  1  0
211219  1  0
219220  2  0
219221  1  0
221222  1  0
222223  1  0
223224  1  0
224225  1  0
225226  2  0
225227  1  0
222228  1  0
228229  2  0
228230  1  0
230231  1  0
231232  1  0
232233  1  0
233234  1  0
234235  1  0
234236  2  0
231237  1  0
237238  2  0
237239  1  0
  8  3  1  0
102 98  1  0
 11  6  1  0
 18 13  2  0
 45 77  2  0
 22  9  1  0
 26 21  1  0
  2240  1  0
  4241  1  0
  5242  1  0
  8243  1  0
 15244  1  0
 17245  1  0
 18246  1  0
 19247  1  0
 23248  1  0
 24249  1  0
 26250  1  0
 27251  1  0
 29252  1  0
 30253  1  0
 30254  1  0
 31255  1  0
 31256  1  0
 34257  1  0
 35258  1  1
 36259  1  0
 36260  1  0
 37261  1  0
 40262  1  0
 42263  1  0
 42264  1  0
 43265  1  0
 43266  1  0
 44267  1  0
 44268  1  0
 45269  1  0
 46270  1  0
 46271  1  0
 46272  1  0
 49273  1  0
 50274  1  1
 51275  1  0
 51276  1  0
 52277  1  0
 52278  1  0
 58279  1  0
 59280  1  1
 60281  1  0
 60282  1  0
 61283  1  0
 62284  1  0
 62285  1  0
 62286  1  0
 63287  1  0
 63288  1  0
 63289  1  0
 66290  1  0
 67291  1  1
 68292  1  0
 68293  1  0
 69294  1  0
 69295  1  0
 69296  1  0
 72297  1  0
 74298  1  0
 74299  1  0
 75300  1  0
 75301  1  0
 76302  1  0
 76303  1  0
 77304  1  0
 78305  1  0
 78306  1  0
 78307  1  0
 81308  1  0
 82309  1  6
 83310  1  0
 83311  1  0
 84312  1  0
 84313  1  0
 90314  1  0
 91315  1  1
 92316  1  0
 92317  1  0
 92318  1  0
 95319  1  0
 96320  1  6
 97321  1  0
 97322  1  0
 99323  1  0
100324  1  0
101325  1  0
105326  1  0
106327  1  1
107328  1  0
107329  1  0
109330  1  0
109331  1  0
113332  1  0
114333  1  6
115334  1  0
115335  1  0
116336  1  0
117337  1  0
117338  1  0
117339  1  0
118340  1  0
118341  1  0
118342  1  0
121343  1  0
122344  1  1
123345  1  0
123346  1  0
124347  1  0
127348  1  0
128349  1  6
129350  1  1
130351  1  0
131352  1  0
131353  1  0
131354  1  0
134355  1  0
135356  1  1
136357  1  0
136358  1  0
137359  1  0
138360  1  0
138361  1  0
138362  1  0
139363  1  0
139364  1  0
139365  1  0
142366  1  0
143367  1  6
144368  1  0
144369  1  0
145370  1  0
146371  1  0
146372  1  0
146373  1  0
147374  1  0
147375  1  0
147376  1  0
150377  1  0
151378  1  1
152379  1  0
152380  1  0
153381  1  0
153382  1  0
159383  1  0
160384  1  6
161385  1  0
161386  1  0
163387  1  0
163388  1  0
167389  1  0
168390  1  1
169391  1  0
169392  1  0
169393  1  0
172394  1  0
173395  1  6
174396  1  1
175397  1  0
175398  1  0
175399  1  0
176400  1  0
176401  1  0
177402  1  0
177403  1  0
177404  1  0
180405  1  0
181406  1  1
182407  1  0
182408  1  0
183409  1  0
183410  1  0
185411  1  0
185412  1  0
189413  1  0
190414  1  6
191415  1  0
191416  1  0
197417  1  0
198418  1  1
199419  1  1
200420  1  0
201421  1  0
201422  1  0
201423  1  0
204424  1  0
205425  1  6
206426  1  0
206427  1  0
207428  1  0
207429  1  0
207430  1  0
210431  1  0
211432  1  1
212433  1  0
212434  1  0
213435  1  0
213436  1  0
214437  1  0
214438  1  0
215439  1  0
217440  1  0
217441  1  0
218442  1  0
218443  1  0
221444  1  0
222445  1  6
223446  1  0
223447  1  0
224448  1  0
224449  1  0
230450  1  0
231451  1  1
232452  1  0
232453  1  0
233454  1  0
233455  1  0
235456  1  0
235457  1  0
M  CHG  7  55  -1  87  -1 156  -1 194  -1 217   1 227  -1 239  -1
M  END
