
     RDKit          2D

305307  0  0  0  0  0  0  0  0999 V2000
  -34.5286   10.3402    0.0000 N   0  0  0  0  0  0  0  0  0  0  0  0
  -33.0598   10.0358    0.0000 C   0  0  0  0  0  0  0  0  0  0  0  0
  -32.5890    8.6116    0.0000 C   0  0  0  0  0  0  0  0  0  0  0  0
  -31.1202    8.3073    0.0000 O   0  0  0  0  0  0  0  0  0  0  0  0
  -30.6494    6.8831    0.0000 C   0  0  0  0  0  0  0  0  0  0  0  0
  -29.1806    6.5787    0.0000 C   0  0  0  0  0  0  0  0  0  0  0  0
  -28.7098    5.1545    0.0000 O   0  0  0  0  0  0  0  0  0  0  0  0
  -27.2410    4.8501    0.0000 C   0  0  0  0  0  0  0  0  0  0  0  0
  -26.7702    3.4259    0.0000 C   0  0  0  0  0  0  0  0  0  0  0  0
  -25.3014    3.1216    0.0000 O   0  0  0  0  0  0  0  0  0  0  0  0
  -24.8306    1.6974    0.0000 C   0  0  0  0  0  0  0  0  0  0  0  0
  -23.3618    1.3930    0.0000 C   0  0  0  0  0  0  0  0  0  0  0  0
  -22.8910   -0.0312    0.0000 O   0  0  0  0  0  0  0  0  0  0  0  0
  -21.4222   -0.3356    0.0000 C   0  0  0  0  0  0  0  0  0  0  0  0
  -20.9514   -1.7598    0.0000 C   0  0  0  0  0  0  0  0  0  0  0  0
  -19.4826   -2.0641    0.0000 O   0  0  0  0  0  0  0  0  0  0  0  0
  -19.0118   -3.4883    0.0000 C   0  0  0  0  0  0  0  0  0  0  0  0
  -17.5430   -3.7927    0.0000 C   0  0  0  0  0  0  0  0  0  0  0  0
  -17.0722   -5.2169    0.0000 O   0  0  0  0  0  0  0  0  0  0  0  0
  -15.6034   -5.5213    0.0000 C   0  0  0  0  0  0  0  0  0  0  0  0
  -15.1326   -6.9455    0.0000 C   0  0  0  0  0  0  0  0  0  0  0  0
  -13.6638   -7.2498    0.0000 C   0  0  0  0  0  0  0  0  0  0  0  0
  -12.6658   -6.1300    0.0000 O   0  0  0  0  0  0  0  0  0  0  0  0
  -13.1930   -8.6740    0.0000 N   0  0  0  0  0  0  0  0  0  0  0  0
  -11.7242   -8.9784    0.0000 C   0  0  0  0  0  0  0  0  0  0  0  0
  -12.2790  -10.3720    0.0000 C   0  0  0  0  0  0  0  0  0  0  0  0
  -13.7633  -10.5884    0.0000 C   0  0  0  0  0  0  0  0  0  0  0  0
  -14.3181  -11.9820    0.0000 N   0  0  0  0  0  0  0  0  0  0  0  0
  -14.8294   -9.5332    0.0000 O   0  0  0  0  0  0  0  0  0  0  0  0
  -10.2399   -8.7621    0.0000 C   0  0  0  0  0  0  0  0  0  0  0  0
   -9.4608  -10.0439    0.0000 O   0  0  0  0  0  0  0  0  0  0  0  0
   -9.6851   -7.3684    0.0000 N   0  0  0  0  0  0  0  0  0  0  0  0
   -8.2008   -7.1521    0.0000 C   0  0  0  0  0  0  0  0  0  0  0  0
   -8.2455   -8.6514    0.0000 C   0  0  0  0  0  0  0  0  0  0  0  0
   -6.9693   -9.4398    0.0000 C   0  0  0  0  0  0  0  0  0  0  0  0
   -7.0140  -10.9391    0.0000 C   0  0  0  0  0  0  0  0  0  0  0  0
   -5.7379  -11.7275    0.0000 N   0  0  0  0  0  0  0  0  0  0  0  0
   -8.3348  -11.6501    0.0000 O   0  0  0  0  0  0  0  0  0  0  0  0
   -6.8800   -6.4411    0.0000 C   0  0  0  0  0  0  0  0  0  0  0  0
   -5.6038   -7.2295    0.0000 O   0  0  0  0  0  0  0  0  0  0  0  0
   -6.8353   -4.9418    0.0000 N   0  0  0  0  0  0  0  0  0  0  0  0
   -5.5145   -4.2308    0.0000 C   0  0  0  0  0  0  0  0  0  0  0  0
   -6.4440   -3.0535    0.0000 C   0  0  0  0  0  0  0  0  0  0  0  0
   -7.9283   -3.2699    0.0000 C   0  0  0  0  0  0  0  0  0  0  0  0
   -8.9944   -2.2147    0.0000 C   0  0  0  0  0  0  0  0  0  0  0  0
   -9.2491   -3.9809    0.0000 C   0  0  0  0  0  0  0  0  0  0  0  0
   -4.0301   -4.0145    0.0000 C   0  0  0  0  0  0  0  0  0  0  0  0
   -3.6494   -2.5636    0.0000 O   0  0  0  0  0  0  0  0  0  0  0  0
   -3.1006   -5.1918    0.0000 N   0  0  0  0  0  0  0  0  0  0  0  0
   -1.6163   -4.9754    0.0000 C   0  0  0  0  0  0  0  0  0  0  0  0
   -0.5452   -6.0256    0.0000 C   0  0  0  0  0  0  0  0  0  0  0  0
    0.7052   -6.8540    0.0000 C   0  0  0  0  0  0  0  0  0  0  0  0
    2.0899   -7.4309    0.0000 C   0  0  0  0  0  0  0  0  0  0  0  0
    3.5587   -7.7352    0.0000 C   0  0  0  0  0  0  0  0  0  0  0  0
    5.0585   -7.7561    0.0000 C   0  0  0  0  0  0  0  0  0  0  0  0
    6.5352   -7.4928    0.0000 C   0  0  0  0  0  0  0  0  0  0  0  0
    7.9354   -6.9548    0.0000 C   0  0  0  0  0  0  0  0  0  0  0  0
   -2.2520   -6.3341    0.0000 C   0  0  0  0  0  0  0  0  0  0  0  0
   -2.4693   -3.7416    0.0000 C   0  0  0  0  0  0  0  0  0  0  0  0
   -3.2386   -3.9506    0.0000 O   0  0  0  0  0  0  0  0  0  0  0  0
   -3.0733   -2.3686    0.0000 N   0  0  0  0  0  0  0  0  0  0  0  0
   -3.4066   -0.9061    0.0000 C   0  0  0  0  0  0  0  0  0  0  0  0
   -4.5690   -1.8541    0.0000 C   0  0  0  0  0  0  0  0  0  0  0  0
   -5.9713   -1.3215    0.0000 C   0  0  0  0  0  0  0  0  0  0  0  0
   -7.2406   -2.1208    0.0000 C   0  0  0  0  0  0  0  0  0  0  0  0
   -7.1068   -0.3414    0.0000 C   0  0  0  0  0  0  0  0  0  0  0  0
   -3.4571    0.5931    0.0000 C   0  0  0  0  0  0  0  0  0  0  0  0
   -4.9319    0.8671    0.0000 O   0  0  0  0  0  0  0  0  0  0  0  0
   -3.2230    2.0747    0.0000 N   0  0  0  0  0  0  0  0  0  0  0  0
   -2.7127    3.4852    0.0000 C   0  0  0  0  0  0  0  0  0  0  0  0
   -4.2031    3.3161    0.0000 C   0  0  0  0  0  0  0  0  0  0  0  0
   -5.0948    4.5223    0.0000 O   0  0  0  0  0  0  0  0  0  0  0  0
   -1.9447    4.7737    0.0000 C   0  0  0  0  0  0  0  0  0  0  0  0
   -3.1543    5.6607    0.0000 O   0  0  0  0  0  0  0  0  0  0  0  0
   -0.9467    5.8935    0.0000 N   0  0  0  0  0  0  0  0  0  0  0  0
    0.2452    6.8042    0.0000 C   0  0  0  0  0  0  0  0  0  0  0  0
   -1.1001    7.4677    0.0000 C   0  0  0  0  0  0  0  0  0  0  0  0
   -1.1981    8.9645    0.0000 C   0  0  0  0  0  0  0  0  0  0  0  0
    0.0492    9.7978    0.0000 C   0  0  0  0  0  0  0  0  0  0  0  0
   -0.0489   11.2946    0.0000 C   0  0  0  0  0  0  0  0  0  0  0  0
   -1.3942   11.9581    0.0000 C   0  0  0  0  0  0  0  0  0  0  0  0
   -2.6414   11.1248    0.0000 C   0  0  0  0  0  0  0  0  0  0  0  0
   -2.5434    9.6280    0.0000 C   0  0  0  0  0  0  0  0  0  0  0  0
    1.5879    7.4729    0.0000 C   0  0  0  0  0  0  0  0  0  0  0  0
    1.2246    8.9283    0.0000 O   0  0  0  0  0  0  0  0  0  0  0  0
    3.0329    7.8754    0.0000 N   0  0  0  0  0  0  0  0  0  0  0  0
    4.5280    7.9972    0.0000 C   0  0  0  0  0  0  0  0  0  0  0  0
    3.7550    9.2827    0.0000 C   0  0  0  0  0  0  0  0  0  0  0  0
    4.4817   10.5949    0.0000 C   0  0  0  0  0  0  0  0  0  0  0  0
    5.9815   10.6216    0.0000 C   0  0  0  0  0  0  0  0  0  0  0  0
    6.7082   11.9338    0.0000 C   0  0  0  0  0  0  0  0  0  0  0  0
    5.9352   13.2192    0.0000 C   0  0  0  0  0  0  0  0  0  0  0  0
    4.4355   13.1925    0.0000 C   0  0  0  0  0  0  0  0  0  0  0  0
    3.7087   11.8804    0.0000 C   0  0  0  0  0  0  0  0  0  0  0  0
    6.0190    7.8338    0.0000 C   0  0  0  0  0  0  0  0  0  0  0  0
    6.5002    9.2546    0.0000 O   0  0  0  0  0  0  0  0  0  0  0  0
    7.4522    7.3912    0.0000 N   0  0  0  0  0  0  0  0  0  0  0  0
    8.7758    6.6854    0.0000 C   0  0  0  0  0  0  0  0  0  0  0  0
    8.8205    8.1847    0.0000 C   0  0  0  0  0  0  0  0  0  0  0  0
    9.9418    5.7418    0.0000 C   0  0  0  0  0  0  0  0  0  0  0  0
   10.9920    6.8129    0.0000 O   0  0  0  0  0  0  0  0  0  0  0  0
   10.9082    4.5946    0.0000 N   0  0  0  0  0  0  0  0  0  0  0  0
   11.6401    3.2852    0.0000 C   0  0  0  0  0  0  0  0  0  0  0  0
   12.4883    4.5224    0.0000 C   0  0  0  0  0  0  0  0  0  0  0  0
   13.9838    4.4064    0.0000 C   0  0  0  0  0  0  0  0  0  0  0  0
   14.8320    5.6436    0.0000 C   0  0  0  0  0  0  0  0  0  0  0  0
   16.3275    5.5276    0.0000 N   0  0  0  0  0  0  0  0  0  0  0  0
   17.1757    6.7648    0.0000 C   0  0  0  0  0  0  0  0  0  0  0  0
   18.6712    6.6488    0.0000 N   0  0  0  0  0  0  0  0  0  0  0  0
   16.5284    8.1179    0.0000 N   0  0  0  0  0  0  0  0  0  0  0  0
   12.1109    1.8610    0.0000 C   0  0  0  0  0  0  0  0  0  0  0  0
   13.6031    2.0136    0.0000 O   0  0  0  0  0  0  0  0  0  0  0  0
   12.3036    0.3735    0.0000 N   0  0  0  0  0  0  0  0  0  0  0  0
   12.2114   -1.1237    0.0000 C   0  0  0  0  0  0  0  0  0  0  0  0
   11.8375   -2.5763    0.0000 C   0  0  0  0  0  0  0  0  0  0  0  0
   11.1954   -3.9320    0.0000 C   0  0  0  0  0  0  0  0  0  0  0  0
   10.3084   -5.1416    0.0000 C   0  0  0  0  0  0  0  0  0  0  0  0
    9.2085   -6.1615    0.0000 C   0  0  0  0  0  0  0  0  0  0  0  0
   13.4579   -1.9580    0.0000 C   0  0  0  0  0  0  0  0  0  0  0  0
   13.5938   -0.5415    0.0000 C   0  0  0  0  0  0  0  0  0  0  0  0
   13.9608    0.9129    0.0000 O   0  0  0  0  0  0  0  0  0  0  0  0
   14.7892   -1.4476    0.0000 N   0  0  0  0  0  0  0  0  0  0  0  0
   16.1716   -0.8654    0.0000 C   0  0  0  0  0  0  0  0  0  0  0  0
   17.2715    0.1545    0.0000 C   0  0  0  0  0  0  0  0  0  0  0  0
   18.7047   -0.2881    0.0000 C   0  0  0  0  0  0  0  0  0  0  0  0
   19.8047    0.7318    0.0000 O   0  0  0  0  0  0  0  0  0  0  0  0
   19.3820   -1.6265    0.0000 O   0  0  0  0  0  0  0  0  0  0  0  0
   17.3670   -1.7715    0.0000 C   0  0  0  0  0  0  0  0  0  0  0  0
   17.1800   -3.2598    0.0000 O   0  0  0  0  0  0  0  0  0  0  0  0
   18.7494   -1.1893    0.0000 N   0  0  0  0  0  0  0  0  0  0  0  0
   19.9448   -2.0954    0.0000 C   0  0  0  0  0  0  0  0  0  0  0  0
   20.7582   -3.3557    0.0000 C   0  0  0  0  0  0  0  0  0  0  0  0
   22.2564   -3.2814    0.0000 C   0  0  0  0  0  0  0  0  0  0  0  0
   23.0698   -4.5418    0.0000 C   0  0  0  0  0  0  0  0  0  0  0  0
   24.5658   -4.6507    0.0000 N   0  0  0  0  0  0  0  0  0  0  0  0
   22.3850   -5.8763    0.0000 O   0  0  0  0  0  0  0  0  0  0  0  0
   21.3272   -1.5132    0.0000 C   0  0  0  0  0  0  0  0  0  0  0  0
   21.5142   -0.0249    0.0000 O   0  0  0  0  0  0  0  0  0  0  0  0
   22.5226   -2.4193    0.0000 N   0  0  0  0  0  0  0  0  0  0  0  0
   23.9050   -1.8371    0.0000 C   0  0  0  0  0  0  0  0  0  0  0  0
   25.0049   -0.8172    0.0000 C   0  0  0  0  0  0  0  0  0  0  0  0
   26.4382   -1.2598    0.0000 C   0  0  0  0  0  0  0  0  0  0  0  0
   25.6897    0.5173    0.0000 C   0  0  0  0  0  0  0  0  0  0  0  0
   24.8763    1.7777    0.0000 C   0  0  0  0  0  0  0  0  0  0  0  0
   25.1004   -2.7432    0.0000 C   0  0  0  0  0  0  0  0  0  0  0  0
   26.5435   -2.3339    0.0000 O   0  0  0  0  0  0  0  0  0  0  0  0
   25.0962   -4.2432    0.0000 O   0  0  0  0  0  0  0  0  0  0  0  0
  -34.9994   11.7644    0.0000 H   0  0  0  0  0  0  0  0  0  0  0  0
  -35.5266    9.2204    0.0000 H   0  0  0  0  0  0  0  0  0  0  0  0
  -33.0151   11.5352    0.0000 H   0  0  0  0  0  0  0  0  0  0  0  0
  -31.5755   10.2522    0.0000 H   0  0  0  0  0  0  0  0  0  0  0  0
  -34.0733    8.3953    0.0000 H   0  0  0  0  0  0  0  0  0  0  0  0
  -32.8161    7.1289    0.0000 H   0  0  0  0  0  0  0  0  0  0  0  0
  -32.0963    6.4874    0.0000 H   0  0  0  0  0  0  0  0  0  0  0  0
  -30.6941    5.3837    0.0000 H   0  0  0  0  0  0  0  0  0  0  0  0
  -29.1359    8.0780    0.0000 H   0  0  0  0  0  0  0  0  0  0  0  0
  -27.7337    6.9744    0.0000 H   0  0  0  0  0  0  0  0  0  0  0  0
  -27.0139    6.3328    0.0000 H   0  0  0  0  0  0  0  0  0  0  0  0
  -25.7567    5.0665    0.0000 H   0  0  0  0  0  0  0  0  0  0  0  0
  -28.2545    3.2096    0.0000 H   0  0  0  0  0  0  0  0  0  0  0  0
  -26.9973    1.9432    0.0000 H   0  0  0  0  0  0  0  0  0  0  0  0
  -26.2775    1.3017    0.0000 H   0  0  0  0  0  0  0  0  0  0  0  0
  -24.8753    0.1980    0.0000 H   0  0  0  0  0  0  0  0  0  0  0  0
  -23.3171    2.8923    0.0000 H   0  0  0  0  0  0  0  0  0  0  0  0
  -21.9149    1.7887    0.0000 H   0  0  0  0  0  0  0  0  0  0  0  0
  -21.1951    1.1471    0.0000 H   0  0  0  0  0  0  0  0  0  0  0  0
  -19.9379   -0.1192    0.0000 H   0  0  0  0  0  0  0  0  0  0  0  0
  -22.4357   -1.9761    0.0000 H   0  0  0  0  0  0  0  0  0  0  0  0
  -21.1785   -3.2425    0.0000 H   0  0  0  0  0  0  0  0  0  0  0  0
  -20.4587   -3.8840    0.0000 H   0  0  0  0  0  0  0  0  0  0  0  0
  -19.0565   -4.9877    0.0000 H   0  0  0  0  0  0  0  0  0  0  0  0
  -17.4983   -2.2934    0.0000 H   0  0  0  0  0  0  0  0  0  0  0  0
  -16.0961   -3.3970    0.0000 H   0  0  0  0  0  0  0  0  0  0  0  0
  -15.3763   -4.0386    0.0000 H   0  0  0  0  0  0  0  0  0  0  0  0
  -14.1191   -5.3049    0.0000 H   0  0  0  0  0  0  0  0  0  0  0  0
  -16.6169   -7.1618    0.0000 H   0  0  0  0  0  0  0  0  0  0  0  0
  -15.1773   -8.4448    0.0000 H   0  0  0  0  0  0  0  0  0  0  0  0
  -14.3200   -9.6639    0.0000 H   0  0  0  0  0  0  0  0  0  0  0  0
  -11.6795   -7.4791    0.0000 H   0  0  0  0  0  0  0  0  0  0  0  0
  -12.3237  -11.8714    0.0000 H   0  0  0  0  0  0  0  0  0  0  0  0
  -10.8102  -10.6764    0.0000 H   0  0  0  0  0  0  0  0  0  0  0  0
  -15.8024  -12.1983    0.0000 H   0  0  0  0  0  0  0  0  0  0  0  0
  -13.3886  -13.1593    0.0000 H   0  0  0  0  0  0  0  0  0  0  0  0
  -10.6146   -6.1912    0.0000 H   0  0  0  0  0  0  0  0  0  0  0  0
   -8.8417   -5.7959    0.0000 H   0  0  0  0  0  0  0  0  0  0  0  0
   -8.6262  -10.1023    0.0000 H   0  0  0  0  0  0  0  0  0  0  0  0
   -9.7443   -8.7115    0.0000 H   0  0  0  0  0  0  0  0  0  0  0  0
   -5.5005   -9.7442    0.0000 H   0  0  0  0  0  0  0  0  0  0  0  0
   -6.4145   -8.0462    0.0000 H   0  0  0  0  0  0  0  0  0  0  0  0
   -5.7826  -13.2268    0.0000 H   0  0  0  0  0  0  0  0  0  0  0  0
   -4.4171  -11.0165    0.0000 H   0  0  0  0  0  0  0  0  0  0  0  0
   -8.2642   -4.4856    0.0000 H   0  0  0  0  0  0  0  0  0  0  0  0
   -5.0436   -5.6550    0.0000 H   0  0  0  0  0  0  0  0  0  0  0  0
   -6.9148   -1.6293    0.0000 H   0  0  0  0  0  0  0  0  0  0  0  0
   -4.9440   -3.0460    0.0000 H   0  0  0  0  0  0  0  0  0  0  0  0
   -7.9993   -4.7682    0.0000 H   0  0  0  0  0  0  0  0  0  0  0  0
  -10.3574   -2.1264    0.0000 H   0  0  0  0  0  0  0  0  0  0  0  0
   -9.5146   -0.7207    0.0000 H   0  0  0  0  0  0  0  0  0  0  0  0
   -7.6335   -1.2259    0.0000 H   0  0  0  0  0  0  0  0  0  0  0  0
   -9.4762   -5.4636    0.0000 H   0  0  0  0  0  0  0  0  0  0  0  0
  -10.7334   -4.1972    0.0000 H   0  0  0  0  0  0  0  0  0  0  0  0
   -9.8900   -2.6247    0.0000 H   0  0  0  0  0  0  0  0  0  0  0  0
   -3.8212   -6.5074    0.0000 H   0  0  0  0  0  0  0  0  0  0  0  0
   -0.9123   -7.4800    0.0000 H   0  0  0  0  0  0  0  0  0  0  0  0
   -1.8911   -6.6879    0.0000 H   0  0  0  0  0  0  0  0  0  0  0  0
    0.6201   -8.3516    0.0000 H   0  0  0  0  0  0  0  0  0  0  0  0
   -0.4910   -7.7591    0.0000 H   0  0  0  0  0  0  0  0  0  0  0  0
    2.2897   -8.9175    0.0000 H   0  0  0  0  0  0  0  0  0  0  0  0
    1.0866   -8.5460    0.0000 H   0  0  0  0  0  0  0  0  0  0  0  0
    4.0362   -9.1572    0.0000 H   0  0  0  0  0  0  0  0  0  0  0  0
    2.7846   -9.0201    0.0000 H   0  0  0  0  0  0  0  0  0  0  0  0
    5.7965   -9.0620    0.0000 H   0  0  0  0  0  0  0  0  0  0  0  0
    4.5416   -9.1642    0.0000 H   0  0  0  0  0  0  0  0  0  0  0  0
    7.6391   -8.5084    0.0000 H   0  0  0  0  0  0  0  0  0  0  0  0
    6.2941   -8.9733    0.0000 H   0  0  0  0  0  0  0  0  0  0  0  0
    8.6041   -8.2975    0.0000 H   0  0  0  0  0  0  0  0  0  0  0  0
   -3.4935   -6.8668    0.0000 H   0  0  0  0  0  0  0  0  0  0  0  0
   -2.0311   -7.9006    0.0000 H   0  0  0  0  0  0  0  0  0  0  0  0
   -0.7129   -7.0044    0.0000 H   0  0  0  0  0  0  0  0  0  0  0  0
   -4.3413   -3.1700    0.0000 H   0  0  0  0  0  0  0  0  0  0  0  0
   -4.6865   -0.1237    0.0000 H   0  0  0  0  0  0  0  0  0  0  0  0
   -5.1743   -3.2266    0.0000 H   0  0  0  0  0  0  0  0  0  0  0  0
   -3.5614   -2.9653    0.0000 H   0  0  0  0  0  0  0  0  0  0  0  0
   -5.5378    0.1145    0.0000 H   0  0  0  0  0  0  0  0  0  0  0  0
   -8.5359   -1.7370    0.0000 H   0  0  0  0  0  0  0  0  0  0  0  0
   -8.3729   -3.2256    0.0000 H   0  0  0  0  0  0  0  0  0  0  0  0
   -5.8698   -3.0898    0.0000 H   0  0  0  0  0  0  0  0  0  0  0  0
   -8.6006   -0.4773    0.0000 H   0  0  0  0  0  0  0  0  0  0  0  0
   -7.8386    0.9679    0.0000 H   0  0  0  0  0  0  0  0  0  0  0  0
   -5.9444    0.6067    0.0000 H   0  0  0  0  0  0  0  0  0  0  0  0
   -4.7104    2.2688    0.0000 H   0  0  0  0  0  0  0  0  0  0  0  0
   -3.5261    4.7455    0.0000 H   0  0  0  0  0  0  0  0  0  0  0  0
   -5.6173    2.8160    0.0000 H   0  0  0  0  0  0  0  0  0  0  0  0
   -4.1384    1.8175    0.0000 H   0  0  0  0  0  0  0  0  0  0  0  0
   -6.5852    4.3531    0.0000 H   0  0  0  0  0  0  0  0  0  0  0  0
   -2.0930    6.8609    0.0000 H   0  0  0  0  0  0  0  0  0  0  0  0
    0.2423    8.3042    0.0000 H   0  0  0  0  0  0  0  0  0  0  0  0
   -2.5601    7.8117    0.0000 H   0  0  0  0  0  0  0  0  0  0  0  0
   -1.8559    6.1721    0.0000 H   0  0  0  0  0  0  0  0  0  0  0  0
    1.4653    9.3033    0.0000 H   0  0  0  0  0  0  0  0  0  0  0  0
    1.1984   12.1279    0.0000 H   0  0  0  0  0  0  0  0  0  0  0  0
   -1.4922   13.4549    0.0000 H   0  0  0  0  0  0  0  0  0  0  0  0
   -3.9867   11.7883    0.0000 H   0  0  0  0  0  0  0  0  0  0  0  0
   -3.7906    8.7947    0.0000 H   0  0  0  0  0  0  0  0  0  0  0  0
    2.5915    9.3090    0.0000 H   0  0  0  0  0  0  0  0  0  0  0  0
    5.3365    9.2607    0.0000 H   0  0  0  0  0  0  0  0  0  0  0  0
    2.7126   10.3614    0.0000 H   0  0  0  0  0  0  0  0  0  0  0  0
    2.4186    8.6013    0.0000 H   0  0  0  0  0  0  0  0  0  0  0  0
    6.9054    9.4399    0.0000 H   0  0  0  0  0  0  0  0  0  0  0  0
    8.2080   11.9605    0.0000 H   0  0  0  0  0  0  0  0  0  0  0  0
    6.6620   14.5314    0.0000 H   0  0  0  0  0  0  0  0  0  0  0  0
    3.6625   14.4780    0.0000 H   0  0  0  0  0  0  0  0  0  0  0  0
    2.2089   11.8537    0.0000 H   0  0  0  0  0  0  0  0  0  0  0  0
    7.8560    8.8359    0.0000 H   0  0  0  0  0  0  0  0  0  0  0  0
   10.1390    7.3111    0.0000 H   0  0  0  0  0  0  0  0  0  0  0  0
   10.1413    8.8957    0.0000 H   0  0  0  0  0  0  0  0  0  0  0  0
    8.5268    9.6557    0.0000 H   0  0  0  0  0  0  0  0  0  0  0  0
    7.3279    8.3340    0.0000 H   0  0  0  0  0  0  0  0  0  0  0  0
   12.0289    5.5916    0.0000 H   0  0  0  0  0  0  0  0  0  0  0  0
   13.0885    2.8952    0.0000 H   0  0  0  0  0  0  0  0  0  0  0  0
   12.8622    5.9751    0.0000 H   0  0  0  0  0  0  0  0  0  0  0  0
   11.3133    5.4549    0.0000 H   0  0  0  0  0  0  0  0  0  0  0  0
   15.3494    3.7859    0.0000 H   0  0  0  0  0  0  0  0  0  0  0  0
   13.9725    2.9065    0.0000 H   0  0  0  0  0  0  0  0  0  0  0  0
   15.2059    7.0962    0.0000 H   0  0  0  0  0  0  0  0  0  0  0  0
   13.5521    6.4259    0.0000 H   0  0  0  0  0  0  0  0  0  0  0  0
   16.9748    4.1745    0.0000 H   0  0  0  0  0  0  0  0  0  0  0  0
   19.5194    7.8859    0.0000 H   0  0  0  0  0  0  0  0  0  0  0  0
   19.3185    5.2956    0.0000 H   0  0  0  0  0  0  0  0  0  0  0  0
   17.3766    9.3551    0.0000 H   0  0  0  0  0  0  0  0  0  0  0  0
   15.0329    8.2339    0.0000 H   0  0  0  0  0  0  0  0  0  0  0  0
   13.7855    0.6063    0.0000 H   0  0  0  0  0  0  0  0  0  0  0  0
   13.3319   -2.4475    0.0000 H   0  0  0  0  0  0  0  0  0  0  0  0
   12.7670   -3.7536    0.0000 H   0  0  0  0  0  0  0  0  0  0  0  0
   12.6571   -4.2690    0.0000 H   0  0  0  0  0  0  0  0  0  0  0  0
   12.0425   -5.1698    0.0000 H   0  0  0  0  0  0  0  0  0  0  0  0
   11.7437   -5.5774    0.0000 H   0  0  0  0  0  0  0  0  0  0  0  0
   10.7338   -6.5800    0.0000 H   0  0  0  0  0  0  0  0  0  0  0  0
   10.1192   -7.3534    0.0000 H   0  0  0  0  0  0  0  0  0  0  0  0
   13.4693   -3.6240    0.0000 H   0  0  0  0  0  0  0  0  0  0  0  0
   14.6569   -2.7887    0.0000 H   0  0  0  0  0  0  0  0  0  0  0  0
   14.3719   -1.0083    0.0000 H   0  0  0  0  0  0  0  0  0  0  0  0
   14.7850   -2.9476    0.0000 H   0  0  0  0  0  0  0  0  0  0  0  0
   15.3582    0.3949    0.0000 H   0  0  0  0  0  0  0  0  0  0  0  0
   17.9563    1.4891    0.0000 H   0  0  0  0  0  0  0  0  0  0  0  0
   16.0761    1.0606    0.0000 H   0  0  0  0  0  0  0  0  0  0  0  0
   19.2910    0.2095    0.0000 H   0  0  0  0  0  0  0  0  0  0  0  0
   18.8449   -3.1153    0.0000 H   0  0  0  0  0  0  0  0  0  0  0  0
   21.0915   -4.8182    0.0000 H   0  0  0  0  0  0  0  0  0  0  0  0
   19.3758   -3.9379    0.0000 H   0  0  0  0  0  0  0  0  0  0  0  0
   23.6388   -2.6993    0.0000 H   0  0  0  0  0  0  0  0  0  0  0  0
   22.6489   -1.8337    0.0000 H   0  0  0  0  0  0  0  0  0  0  0  0
   25.3813   -5.7278    0.0000 H   0  0  0  0  0  0  0  0  0  0  0  0
   25.7511   -3.4800    0.0000 H   0  0  0  0  0  0  0  0  0  0  0  0
   22.7013   -3.9086    0.0000 H   0  0  0  0  0  0  0  0  0  0  0  0
   23.0916   -0.5768    0.0000 H   0  0  0  0  0  0  0  0  0  0  0  0
   23.7080   -0.0636    0.0000 H   0  0  0  0  0  0  0  0  0  0  0  0
   27.6542   -0.3816    0.0000 H   0  0  0  0  0  0  0  0  0  0  0  0
   27.6336   -2.1660    0.0000 H   0  0  0  0  0  0  0  0  0  0  0  0
   26.4603   -2.7597    0.0000 H   0  0  0  0  0  0  0  0  0  0  0  0
   26.7896    1.5372    0.0000 H   0  0  0  0  0  0  0  0  0  0  0  0
   26.9866   -0.2363    0.0000 H   0  0  0  0  0  0  0  0  0  0  0  0
   25.5611    3.1122    0.0000 H   0  0  0  0  0  0  0  0  0  0  0  0
   23.6809    2.6838    0.0000 H   0  0  0  0  0  0  0  0  0  0  0  0
   23.6603    0.8994    0.0000 H   0  0  0  0  0  0  0  0  0  0  0  0
  1  2  1  0
  2  3  1  0
  3  4  1  0
  4  5  1  0
  5  6  1  0
  6  7  1  0
  7  8  1  0
  8  9  1  0
  9 10  1  0
 10 11  1  0
 11 12  1  0
 12 13  1  0
 13 14  1  0
 14 15  1  0
 15 16  1  0
 16 17  1  0
 17 18  1  0
 18 19  1  0
 19 20  1  0
 20 21  1  0
 21 22  1  0
 22 23  2  0
 22 24  1  0
 24 25  1  0
 25 26  1  0
 26 27  1  0
 27 28  1  0
 27 29  2  0
 25 30  1  0
 30 31  2  0
 30 32  1  0
 32 33  1  0
 33 34  1  0
 34 35  1  0
 35 36  1  0
 36 37  1  0
 36 38  2  0
 33 39  1  0
 39 40  2  0
 39 41  1  0
 41 42  1  0
 42 43  1  0
 43 44  1  0
 44 45  1  0
 44 46  1  0
 42 47  1  0
 47 48  2  0
 47 49  1  0
 50 49  1  1
 50 51  1  0
 51 52  1  0
 52 53  1  0
 53 54  1  0
 54 55  1  0
 55 56  1  0
 56 57  1  0
 50 58  1  0
 50 59  1  0
 59 60  2  0
 59 61  1  0
 61 62  1  0
 62 63  1  0
 63 64  1  0
 64 65  1  0
 64 66  1  0
 62 67  1  0
 67 68  2  0
 67 69  1  0
 69 70  1  0
 70 71  1  0
 71 72  1  0
 70 73  1  0
 73 74  2  0
 73 75  1  0
 75 76  1  0
 76 77  1  0
 77 78  1  0
 78 79  2  0
 79 80  1  0
 80 81  2  0
 81 82  1  0
 82 83  2  0
 76 84  1  0
 84 85  2  0
 84 86  1  0
 86 87  1  0
 87 88  1  0
 88 89  1  0
 89 90  2  0
 90 91  1  0
 91 92  2  0
 92 93  1  0
 93 94  2  0
 87 95  1  0
 95 96  2  0
 95 97  1  0
 97 98  1  0
 98 99  1  0
 98100  1  0
100101  2  0
100102  1  0
102103  1  0
103104  1  0
104105  1  0
105106  1  0
106107  1  0
107108  1  0
108109  2  3
108110  1  0
103111  1  0
111112  2  0
111113  1  0
113114  1  0
114115  1  0
115116  1  0
116117  1  0
117118  1  0
114119  1  0
114120  1  6
120121  2  0
120122  1  0
122123  1  0
123124  1  0
124125  1  0
125126  2  0
125127  1  0
123128  1  0
128129  2  0
128130  1  0
130131  1  0
131132  1  0
132133  1  0
133134  1  0
134135  1  0
134136  2  0
131137  1  0
137138  2  0
137139  1  0
139140  1  0
140141  1  0
141142  1  0
141143  1  0
143144  1  0
140145  1  0
145146  2  0
145147  1  0
 83 78  1  0
 94 89  1  0
 57118  2  0
  1148  1  0
  1149  1  0
  2150  1  0
  2151  1  0
  3152  1  0
  3153  1  0
  5154  1  0
  5155  1  0
  6156  1  0
  6157  1  0
  8158  1  0
  8159  1  0
  9160  1  0
  9161  1  0
 11162  1  0
 11163  1  0
 12164  1  0
 12165  1  0
 14166  1  0
 14167  1  0
 15168  1  0
 15169  1  0
 17170  1  0
 17171  1  0
 18172  1  0
 18173  1  0
 20174  1  0
 20175  1  0
 21176  1  0
 21177  1  0
 24178  1  0
 25179  1  6
 26180  1  0
 26181  1  0
 28182  1  0
 28183  1  0
 32184  1  0
 33185  1  6
 34186  1  0
 34187  1  0
 35188  1  0
 35189  1  0
 37190  1  0
 37191  1  0
 41192  1  0
 42193  1  1
 43194  1  0
 43195  1  0
 44196  1  0
 45197  1  0
 45198  1  0
 45199  1  0
 46200  1  0
 46201  1  0
 46202  1  0
 49203  1  0
 51204  1  0
 51205  1  0
 52206  1  0
 52207  1  0
 53208  1  0
 53209  1  0
 54210  1  0
 54211  1  0
 55212  1  0
 55213  1  0
 56214  1  0
 56215  1  0
 57216  1  0
 58217  1  0
 58218  1  0
 58219  1  0
 61220  1  0
 62221  1  1
 63222  1  0
 63223  1  0
 64224  1  0
 65225  1  0
 65226  1  0
 65227  1  0
 66228  1  0
 66229  1  0
 66230  1  0
 69231  1  0
 70232  1  1
 71233  1  0
 71234  1  0
 72235  1  0
 75236  1  0
 76237  1  1
 77238  1  0
 77239  1  0
 79240  1  0
 80241  1  0
 81242  1  0
 82243  1  0
 83244  1  0
 86245  1  0
 87246  1  1
 88247  1  0
 88248  1  0
 90249  1  0
 91250  1  0
 92251  1  0
 93252  1  0
 94253  1  0
 97254  1  0
 98255  1  1
 99256  1  0
 99257  1  0
 99258  1  0
102259  1  0
103260  1  1
104261  1  0
104262  1  0
105263  1  0
105264  1  0
106265  1  0
106266  1  0
107267  1  0
109268  1  0
109269  1  0
110270  1  0
110271  1  0
113272  1  0
115273  1  0
115274  1  0
116275  1  0
116276  1  0
117277  1  0
117278  1  0
118279  1  0
119280  1  0
119281  1  0
119282  1  0
122283  1  0
123284  1  1
124285  1  0
124286  1  0
130287  1  0
131288  1  6
132289  1  0
132290  1  0
133291  1  0
133292  1  0
135293  1  0
135294  1  0
139295  1  0
140296  1  1
141297  1  1
142298  1  0
142299  1  0
142300  1  0
143301  1  0
143302  1  0
144303  1  0
144304  1  0
144305  1  0
M  CHG  3 109   1 127  -1 147  -1
M  END
