
     RDKit          2D

135137  0  0  0  0  0  0  0  0999 V2000
  -10.7783    5.0288    0.0000 N   0  0  0  0  0  0  0  0  0  0  0  0
   -9.5014    4.2416    0.0000 C   0  0  0  0  0  0  0  0  0  0  0  0
   -9.5447    2.7422    0.0000 C   0  0  0  0  0  0  0  0  0  0  0  0
   -8.2678    1.9551    0.0000 C   0  0  0  0  0  0  0  0  0  0  0  0
   -6.9477    2.6673    0.0000 O   0  0  0  0  0  0  0  0  0  0  0  0
   -8.3111    0.4557    0.0000 N   0  0  0  0  0  0  0  0  0  0  0  0
   -7.0342   -0.3314    0.0000 C   0  0  0  0  0  0  0  0  0  0  0  0
   -8.0311   -1.4522    0.0000 C   0  0  0  0  0  0  0  0  0  0  0  0
   -9.5002   -1.1493    0.0000 C   0  0  0  0  0  0  0  0  0  0  0  0
   -9.9724    0.2745    0.0000 C   0  0  0  0  0  0  0  0  0  0  0  0
  -11.4414    0.5775    0.0000 C   0  0  0  0  0  0  0  0  0  0  0  0
  -12.4384   -0.5433    0.0000 C   0  0  0  0  0  0  0  0  0  0  0  0
  -11.9662   -1.9671    0.0000 C   0  0  0  0  0  0  0  0  0  0  0  0
  -10.4971   -2.2700    0.0000 C   0  0  0  0  0  0  0  0  0  0  0  0
   -5.5651   -0.6344    0.0000 C   0  0  0  0  0  0  0  0  0  0  0  0
   -5.2700   -2.1051    0.0000 O   0  0  0  0  0  0  0  0  0  0  0  0
   -4.5682    0.4864    0.0000 N   0  0  0  0  0  0  0  0  0  0  0  0
   -3.0991    0.1834    0.0000 C   0  0  0  0  0  0  0  0  0  0  0  0
   -3.4272    1.6471    0.0000 C   0  0  0  0  0  0  0  0  0  0  0  0
   -3.3092    3.1424    0.0000 C   0  0  0  0  0  0  0  0  0  0  0  0
   -2.7557    4.5366    0.0000 C   0  0  0  0  0  0  0  0  0  0  0  0
   -1.8159    5.7057    0.0000 C   0  0  0  0  0  0  0  0  0  0  0  0
   -3.9795   -1.0311    0.0000 C   0  0  0  0  0  0  0  0  0  0  0  0
   -2.3542   -1.1186    0.0000 C   0  0  0  0  0  0  0  0  0  0  0  0
   -3.5306   -2.0492    0.0000 O   0  0  0  0  0  0  0  0  0  0  0  0
   -1.2586   -2.1431    0.0000 N   0  0  0  0  0  0  0  0  0  0  0  0
    0.0903   -2.7992    0.0000 C   0  0  0  0  0  0  0  0  0  0  0  0
    0.4909   -4.2448    0.0000 C   0  0  0  0  0  0  0  0  0  0  0  0
   -0.5607   -5.3144    0.0000 C   0  0  0  0  0  0  0  0  0  0  0  0
   -0.1601   -6.7600    0.0000 C   0  0  0  0  0  0  0  0  0  0  0  0
   -1.2116   -7.8297    0.0000 N   0  0  0  0  0  0  0  0  0  0  0  0
   -0.8110   -9.2752    0.0000 C   0  0  0  0  0  0  0  0  0  0  0  0
   -1.8625  -10.3449    0.0000 N   0  0  0  0  0  0  0  0  0  0  0  0
    0.6412   -9.6510    0.0000 N   0  0  0  0  0  0  0  0  0  0  0  0
    1.5726   -3.0286    0.0000 C   0  0  0  0  0  0  0  0  0  0  0  0
    1.5668   -4.5286    0.0000 O   0  0  0  0  0  0  0  0  0  0  0  0
    3.0568   -2.8108    0.0000 N   0  0  0  0  0  0  0  0  0  0  0  0
    4.4107   -2.1653    0.0000 C   0  0  0  0  0  0  0  0  0  0  0  0
    5.7907   -2.7534    0.0000 C   0  0  0  0  0  0  0  0  0  0  0  0
    5.9714   -4.2424    0.0000 C   0  0  0  0  0  0  0  0  0  0  0  0
    7.3513   -4.8305    0.0000 C   0  0  0  0  0  0  0  0  0  0  0  0
    5.6319   -5.7035    0.0000 C   0  0  0  0  0  0  0  0  0  0  0  0
    5.5143   -1.1494    0.0000 C   0  0  0  0  0  0  0  0  0  0  0  0
    6.6834   -2.0892    0.0000 O   0  0  0  0  0  0  0  0  0  0  0  0
    6.2694    0.1467    0.0000 N   0  0  0  0  0  0  0  0  0  0  0  0
    6.6089    1.6078    0.0000 C   0  0  0  0  0  0  0  0  0  0  0  0
    7.9290    2.3200    0.0000 C   0  0  0  0  0  0  0  0  0  0  0  0
    9.2059    1.5329    0.0000 C   0  0  0  0  0  0  0  0  0  0  0  0
    9.1626    0.0335    0.0000 C   0  0  0  0  0  0  0  0  0  0  0  0
   10.4395   -0.7537    0.0000 C   0  0  0  0  0  0  0  0  0  0  0  0
   11.7596   -0.0414    0.0000 C   0  0  0  0  0  0  0  0  0  0  0  0
   11.8029    1.4579    0.0000 C   0  0  0  0  0  0  0  0  0  0  0  0
   10.5260    2.2451    0.0000 C   0  0  0  0  0  0  0  0  0  0  0  0
    6.5026    3.1040    0.0000 C   0  0  0  0  0  0  0  0  0  0  0  0
    7.9663    3.4321    0.0000 O   0  0  0  0  0  0  0  0  0  0  0  0
    5.9601    4.5025    0.0000 N   0  0  0  0  0  0  0  0  0  0  0  0
    5.0295    5.6789    0.0000 C   0  0  0  0  0  0  0  0  0  0  0  0
    3.7934    6.5287    0.0000 C   0  0  0  0  0  0  0  0  0  0  0  0
    2.3618    6.9764    0.0000 C   0  0  0  0  0  0  0  0  0  0  0  0
    0.8618    6.9823    0.0000 C   0  0  0  0  0  0  0  0  0  0  0  0
   -0.5733    6.5458    0.0000 C   0  0  0  0  0  0  0  0  0  0  0  0
    6.4845    6.0433    0.0000 C   0  0  0  0  0  0  0  0  0  0  0  0
    5.2957    7.1551    0.0000 C   0  0  0  0  0  0  0  0  0  0  0  0
    6.6349    7.8308    0.0000 O   0  0  0  0  0  0  0  0  0  0  0  0
    4.4189    8.3721    0.0000 O   0  0  0  0  0  0  0  0  0  0  0  0
  -10.7350    6.5282    0.0000 H   0  0  0  0  0  0  0  0  0  0  0  0
  -12.0984    4.3166    0.0000 H   0  0  0  0  0  0  0  0  0  0  0  0
   -8.9479    5.6358    0.0000 H   0  0  0  0  0  0  0  0  0  0  0  0
   -8.0323    3.9386    0.0000 H   0  0  0  0  0  0  0  0  0  0  0  0
  -11.0137    3.0452    0.0000 H   0  0  0  0  0  0  0  0  0  0  0  0
  -10.0981    1.3481    0.0000 H   0  0  0  0  0  0  0  0  0  0  0  0
   -9.0834    0.2582    0.0000 H   0  0  0  0  0  0  0  0  0  0  0  0
   -6.4807    1.0627    0.0000 H   0  0  0  0  0  0  0  0  0  0  0  0
   -8.5846   -2.8464    0.0000 H   0  0  0  0  0  0  0  0  0  0  0  0
   -6.7542   -2.2394    0.0000 H   0  0  0  0  0  0  0  0  0  0  0  0
   -8.9754    1.3953    0.0000 H   0  0  0  0  0  0  0  0  0  0  0  0
  -11.9136    2.0012    0.0000 H   0  0  0  0  0  0  0  0  0  0  0  0
  -13.9074   -0.2403    0.0000 H   0  0  0  0  0  0  0  0  0  0  0  0
  -12.9631   -3.0878    0.0000 H   0  0  0  0  0  0  0  0  0  0  0  0
  -10.0250   -3.6938    0.0000 H   0  0  0  0  0  0  0  0  0  0  0  0
   -5.3708    1.7536    0.0000 H   0  0  0  0  0  0  0  0  0  0  0  0
   -4.8088    1.0630    0.0000 H   0  0  0  0  0  0  0  0  0  0  0  0
   -4.7417    2.3696    0.0000 H   0  0  0  0  0  0  0  0  0  0  0  0
   -4.8016    2.9916    0.0000 H   0  0  0  0  0  0  0  0  0  0  0  0
   -4.4760    4.0851    0.0000 H   0  0  0  0  0  0  0  0  0  0  0  0
   -4.2514    4.6508    0.0000 H   0  0  0  0  0  0  0  0  0  0  0  0
   -3.4348    5.8741    0.0000 H   0  0  0  0  0  0  0  0  0  0  0  0
   -2.8319    6.8092    0.0000 H   0  0  0  0  0  0  0  0  0  0  0  0
   -5.4646   -1.2415    0.0000 H   0  0  0  0  0  0  0  0  0  0  0  0
   -4.2125   -2.5129    0.0000 H   0  0  0  0  0  0  0  0  0  0  0  0
   -2.8294   -1.9941    0.0000 H   0  0  0  0  0  0  0  0  0  0  0  0
   -2.1084   -3.3792    0.0000 H   0  0  0  0  0  0  0  0  0  0  0  0
   -1.1709   -3.6112    0.0000 H   0  0  0  0  0  0  0  0  0  0  0  0
    1.5041   -5.3508    0.0000 H   0  0  0  0  0  0  0  0  0  0  0  0
    1.9608   -3.9460    0.0000 H   0  0  0  0  0  0  0  0  0  0  0  0
   -1.9146   -5.9600    0.0000 H   0  0  0  0  0  0  0  0  0  0  0  0
   -1.5739   -4.2084    0.0000 H   0  0  0  0  0  0  0  0  0  0  0  0
    0.7108   -7.9813    0.0000 H   0  0  0  0  0  0  0  0  0  0  0  0
    1.2625   -6.2843    0.0000 H   0  0  0  0  0  0  0  0  0  0  0  0
   -2.6638   -7.4538    0.0000 H   0  0  0  0  0  0  0  0  0  0  0  0
   -1.4619  -11.7904    0.0000 H   0  0  0  0  0  0  0  0  0  0  0  0
   -3.3147   -9.9690    0.0000 H   0  0  0  0  0  0  0  0  0  0  0  0
    1.0418  -11.0965    0.0000 H   0  0  0  0  0  0  0  0  0  0  0  0
    1.6927   -8.5813    0.0000 H   0  0  0  0  0  0  0  0  0  0  0  0
    3.4933   -4.2459    0.0000 H   0  0  0  0  0  0  0  0  0  0  0  0
    4.2592   -3.6576    0.0000 H   0  0  0  0  0  0  0  0  0  0  0  0
    7.2872   -2.6508    0.0000 H   0  0  0  0  0  0  0  0  0  0  0  0
    6.4736   -1.4179    0.0000 H   0  0  0  0  0  0  0  0  0  0  0  0
    4.4749   -4.3450    0.0000 H   0  0  0  0  0  0  0  0  0  0  0  0
    7.7121   -6.2865    0.0000 H   0  0  0  0  0  0  0  0  0  0  0  0
    8.8491   -4.9111    0.0000 H   0  0  0  0  0  0  0  0  0  0  0  0
    7.8664   -3.4217    0.0000 H   0  0  0  0  0  0  0  0  0  0  0  0
    6.5944   -6.8540    0.0000 H   0  0  0  0  0  0  0  0  0  0  0  0
    4.8131   -6.9604    0.0000 H   0  0  0  0  0  0  0  0  0  0  0  0
    4.2519   -5.1155    0.0000 H   0  0  0  0  0  0  0  0  0  0  0  0
    7.5857   -0.5726    0.0000 H   0  0  0  0  0  0  0  0  0  0  0  0
    7.8010    0.6974    0.0000 H   0  0  0  0  0  0  0  0  0  0  0  0
    8.9259    3.4408    0.0000 H   0  0  0  0  0  0  0  0  0  0  0  0
    7.3107    3.6867    0.0000 H   0  0  0  0  0  0  0  0  0  0  0  0
    7.9391   -0.8343    0.0000 H   0  0  0  0  0  0  0  0  0  0  0  0
   10.3962   -2.2530    0.0000 H   0  0  0  0  0  0  0  0  0  0  0  0
   13.0365   -0.8286    0.0000 H   0  0  0  0  0  0  0  0  0  0  0  0
   13.1230    2.1702    0.0000 H   0  0  0  0  0  0  0  0  0  0  0  0
   10.5693    3.7445    0.0000 H   0  0  0  0  0  0  0  0  0  0  0  0
    7.2621    5.2474    0.0000 H   0  0  0  0  0  0  0  0  0  0  0  0
    3.6127    8.0178    0.0000 H   0  0  0  0  0  0  0  0  0  0  0  0
    4.8502    7.5932    0.0000 H   0  0  0  0  0  0  0  0  0  0  0  0
    1.9217    8.4104    0.0000 H   0  0  0  0  0  0  0  0  0  0  0  0
    3.0579    8.3051    0.0000 H   0  0  0  0  0  0  0  0  0  0  0  0
   -0.1263    8.1109    0.0000 H   0  0  0  0  0  0  0  0  0  0  0  0
    1.3131    8.4128    0.0000 H   0  0  0  0  0  0  0  0  0  0  0  0
   -1.2188    7.8998    0.0000 H   0  0  0  0  0  0  0  0  0  0  0  0
    7.0692    7.4247    0.0000 H   0  0  0  0  0  0  0  0  0  0  0  0
    7.9765    5.8881    0.0000 H   0  0  0  0  0  0  0  0  0  0  0  0
    6.9497    4.6173    0.0000 H   0  0  0  0  0  0  0  0  0  0  0  0
  1  2  1  0
  2  3  1  0
  3  4  1  0
  4  5  2  0
  4  6  1  0
  6  7  1  0
  7  8  1  0
  8  9  1  0
  9 10  2  0
 10 11  1  0
 11 12  2  0
 12 13  1  0
 13 14  2  0
  7 15  1  0
 15 16  2  0
 15 17  1  0
 18 17  1  1
 18 19  1  0
 19 20  1  0
 20 21  1  0
 21 22  1  0
 18 23  1  0
 18 24  1  0
 24 25  2  0
 24 26  1  0
 26 27  1  0
 27 28  1  0
 28 29  1  0
 29 30  1  0
 30 31  1  0
 31 32  1  0
 32 33  2  3
 32 34  1  0
 27 35  1  0
 35 36  2  0
 35 37  1  0
 37 38  1  0
 38 39  1  0
 39 40  1  0
 40 41  1  0
 40 42  1  0
 38 43  1  0
 43 44  2  0
 43 45  1  0
 45 46  1  0
 46 47  1  0
 47 48  1  0
 48 49  2  0
 49 50  1  0
 50 51  2  0
 51 52  1  0
 52 53  2  0
 46 54  1  0
 54 55  2  0
 54 56  1  0
 56 57  1  0
 57 58  1  0
 58 59  1  0
 59 60  1  0
 60 61  1  0
 57 62  1  0
 57 63  1  1
 63 64  2  0
 63 65  1  0
 14  9  1  0
 53 48  1  0
 22 61  2  0
  1 66  1  0
  1 67  1  0
  2 68  1  0
  2 69  1  0
  3 70  1  0
  3 71  1  0
  6 72  1  0
  7 73  1  6
  8 74  1  0
  8 75  1  0
 10 76  1  0
 11 77  1  0
 12 78  1  0
 13 79  1  0
 14 80  1  0
 17 81  1  0
 19 82  1  0
 19 83  1  0
 20 84  1  0
 20 85  1  0
 21 86  1  0
 21 87  1  0
 22 88  1  0
 23 89  1  0
 23 90  1  0
 23 91  1  0
 26 92  1  0
 27 93  1  6
 28 94  1  0
 28 95  1  0
 29 96  1  0
 29 97  1  0
 30 98  1  0
 30 99  1  0
 31100  1  0
 33101  1  0
 33102  1  0
 34103  1  0
 34104  1  0
 37105  1  0
 38106  1  6
 39107  1  0
 39108  1  0
 40109  1  0
 41110  1  0
 41111  1  0
 41112  1  0
 42113  1  0
 42114  1  0
 42115  1  0
 45116  1  0
 46117  1  6
 47118  1  0
 47119  1  0
 49120  1  0
 50121  1  0
 51122  1  0
 52123  1  0
 53124  1  0
 56125  1  0
 58126  1  0
 58127  1  0
 59128  1  0
 59129  1  0
 60130  1  0
 60131  1  0
 61132  1  0
 62133  1  0
 62134  1  0
 62135  1  0
M  CHG  2  33   1  65  -1
M  END
