
     RDKit          2D

204212  0  0  0  0  0  0  0  0999 V2000
   14.5378   -1.5953    0.0000 C   0  0  0  0  0  0  0  0  0  0  0  0
   15.8479   -0.8647    0.0000 N   0  0  0  0  0  0  0  0  0  0  0  0
   17.1356   -1.6339    0.0000 C   0  0  0  0  0  0  0  0  0  0  0  0
   17.1133   -3.1337    0.0000 C   0  0  0  0  0  0  0  0  0  0  0  0
   18.4010   -3.9030    0.0000 C   0  0  0  0  0  0  0  0  0  0  0  0
   19.7111   -3.1724    0.0000 C   0  0  0  0  0  0  0  0  0  0  0  0
   19.7334   -1.6725    0.0000 C   0  0  0  0  0  0  0  0  0  0  0  0
   18.4456   -0.9033    0.0000 C   0  0  0  0  0  0  0  0  0  0  0  0
   21.1667   -1.2303    0.0000 C   0  0  0  0  0  0  0  0  0  0  0  0
   22.0302   -2.4568    0.0000 O   0  0  0  0  0  0  0  0  0  0  0  0
   21.1306   -3.6570    0.0000 C   0  0  0  0  0  0  0  0  0  0  0  0
   21.5729   -5.0904    0.0000 O   0  0  0  0  0  0  0  0  0  0  0  0
   22.6384   -0.9402    0.0000 C   0  0  0  0  0  0  0  0  0  0  0  0
   23.1231    0.4793    0.0000 C   0  0  0  0  0  0  0  0  0  0  0  0
   24.5948    0.7693    0.0000 C   0  0  0  0  0  0  0  0  0  0  0  0
   25.5818   -0.3602    0.0000 C   0  0  0  0  0  0  0  0  0  0  0  0
   25.0971   -1.7797    0.0000 C   0  0  0  0  0  0  0  0  0  0  0  0
   23.6254   -2.0698    0.0000 C   0  0  0  0  0  0  0  0  0  0  0  0
   27.0535   -0.0702    0.0000 O   0  0  0  0  0  0  0  0  0  0  0  0
   22.1361    1.6088    0.0000 O   0  0  0  0  0  0  0  0  0  0  0  0
   20.6644    1.3188    0.0000 C   0  0  0  0  0  0  0  0  0  0  0  0
   20.1797   -0.1008    0.0000 C   0  0  0  0  0  0  0  0  0  0  0  0
   18.9342    0.2717    0.0000 C   0  0  0  0  0  0  0  0  0  0  0  0
   18.4078    0.8741    0.0000 C   0  0  0  0  0  0  0  0  0  0  0  0
   18.6663    1.6312    0.0000 C   0  0  0  0  0  0  0  0  0  0  0  0
   19.4512    1.7858    0.0000 C   0  0  0  0  0  0  0  0  0  0  0  0
   17.2186    3.2878    0.0000 O   0  0  0  0  0  0  0  0  0  0  0  0
   14.5155   -3.0951    0.0000 S   0  0  0  0  0  0  0  0  0  0  0  0
   13.2501   -0.8261    0.0000 N   0  0  0  0  0  0  0  0  0  0  0  0
   11.9400   -1.5567    0.0000 C   0  0  0  0  0  0  0  0  0  0  0  0
   10.6523   -0.7874    0.0000 C   0  0  0  0  0  0  0  0  0  0  0  0
    9.3422   -1.5181    0.0000 C   0  0  0  0  0  0  0  0  0  0  0  0
    9.3199   -3.0179    0.0000 O   0  0  0  0  0  0  0  0  0  0  0  0
    8.0545   -0.7488    0.0000 N   0  0  0  0  0  0  0  0  0  0  0  0
    6.7444   -1.4794    0.0000 C   0  0  0  0  0  0  0  0  0  0  0  0
    5.7633   -2.6140    0.0000 C   0  0  0  0  0  0  0  0  0  0  0  0
    5.4567   -0.7102    0.0000 C   0  0  0  0  0  0  0  0  0  0  0  0
    5.4790    0.7896    0.0000 O   0  0  0  0  0  0  0  0  0  0  0  0
    4.1467   -1.4408    0.0000 N   0  0  0  0  0  0  0  0  0  0  0  0
    2.8589   -0.6716    0.0000 C   0  0  0  0  0  0  0  0  0  0  0  0
    1.9119    0.4917    0.0000 C   0  0  0  0  0  0  0  0  0  0  0  0
    2.4458    1.8934    0.0000 C   0  0  0  0  0  0  0  0  0  0  0  0
    1.4988    3.0567    0.0000 S   0  0  0  0  0  0  0  0  0  0  0  0
    2.3561    4.2876    0.0000 C   0  0  0  0  0  0  0  0  0  0  0  0
    1.5489   -1.4022    0.0000 C   0  0  0  0  0  0  0  0  0  0  0  0
    1.7096   -2.8936    0.0000 O   0  0  0  0  0  0  0  0  0  0  0  0
    0.2611   -0.6330    0.0000 N   0  0  0  0  0  0  0  0  0  0  0  0
   -1.0489   -1.3636    0.0000 C   0  0  0  0  0  0  0  0  0  0  0  0
   -1.3680   -2.8293    0.0000 C   0  0  0  0  0  0  0  0  0  0  0  0
   -2.1049   -4.1358    0.0000 C   0  0  0  0  0  0  0  0  0  0  0  0
   -3.1941   -5.1671    0.0000 C   0  0  0  0  0  0  0  0  0  0  0  0
   -4.5389   -5.8315    0.0000 C   0  0  0  0  0  0  0  0  0  0  0  0
    0.2558   -2.1037    0.0000 C   0  0  0  0  0  0  0  0  0  0  0  0
   -1.1761    0.1310    0.0000 C   0  0  0  0  0  0  0  0  0  0  0  0
    0.1552    0.8222    0.0000 O   0  0  0  0  0  0  0  0  0  0  0  0
   -1.7381    1.5218    0.0000 N   0  0  0  0  0  0  0  0  0  0  0  0
   -2.6851    2.6850    0.0000 C   0  0  0  0  0  0  0  0  0  0  0  0
   -2.4395    4.1648    0.0000 C   0  0  0  0  0  0  0  0  0  0  0  0
   -1.0352    4.6920    0.0000 C   0  0  0  0  0  0  0  0  0  0  0  0
    0.1235    3.7394    0.0000 C   0  0  0  0  0  0  0  0  0  0  0  0
    1.5278    4.2666    0.0000 C   0  0  0  0  0  0  0  0  0  0  0  0
    1.7734    5.7464    0.0000 C   0  0  0  0  0  0  0  0  0  0  0  0
    3.1030    6.4408    0.0000 O   0  0  0  0  0  0  0  0  0  0  0  0
    0.6147    6.6989    0.0000 C   0  0  0  0  0  0  0  0  0  0  0  0
   -0.7896    6.1717    0.0000 C   0  0  0  0  0  0  0  0  0  0  0  0
   -3.9329    3.5175    0.0000 C   0  0  0  0  0  0  0  0  0  0  0  0
   -3.2957    4.8754    0.0000 O   0  0  0  0  0  0  0  0  0  0  0  0
   -5.3707    3.9452    0.0000 N   0  0  0  0  0  0  0  0  0  0  0  0
   -6.8706    3.9301    0.0000 C   0  0  0  0  0  0  0  0  0  0  0  0
   -7.8744    5.0447    0.0000 C   0  0  0  0  0  0  0  0  0  0  0  0
   -7.4110    6.4713    0.0000 C   0  0  0  0  0  0  0  0  0  0  0  0
   -5.9844    6.9350    0.0000 C   0  0  0  0  0  0  0  0  0  0  0  0
   -5.9846    8.4350    0.0000 N   0  0  0  0  0  0  0  0  0  0  0  0
   -7.4112    8.8984    0.0000 C   0  0  0  0  0  0  0  0  0  0  0  0
   -8.0214   10.2686    0.0000 C   0  0  0  0  0  0  0  0  0  0  0  0
   -9.5132   10.4253    0.0000 C   0  0  0  0  0  0  0  0  0  0  0  0
  -10.3948    9.2117    0.0000 C   0  0  0  0  0  0  0  0  0  0  0  0
   -9.7846    7.8414    0.0000 C   0  0  0  0  0  0  0  0  0  0  0  0
   -8.2928    7.6848    0.0000 C   0  0  0  0  0  0  0  0  0  0  0  0
   -8.2994    3.4735    0.0000 C   0  0  0  0  0  0  0  0  0  0  0  0
   -8.9638    4.8184    0.0000 O   0  0  0  0  0  0  0  0  0  0  0  0
   -9.5302    2.6161    0.0000 N   0  0  0  0  0  0  0  0  0  0  0  0
  -10.4536    1.4340    0.0000 C   0  0  0  0  0  0  0  0  0  0  0  0
  -11.9509    1.3442    0.0000 C   0  0  0  0  0  0  0  0  0  0  0  0
  -12.7773    2.5959    0.0000 C   0  0  0  0  0  0  0  0  0  0  0  0
  -14.2747    2.5061    0.0000 C   0  0  0  0  0  0  0  0  0  0  0  0
  -15.1011    3.7579    0.0000 C   0  0  0  0  0  0  0  0  0  0  0  0
  -16.5984    3.6680    0.0000 N   0  0  0  0  0  0  0  0  0  0  0  0
  -10.9875    0.0322    0.0000 C   0  0  0  0  0  0  0  0  0  0  0  0
  -12.4532    0.3513    0.0000 O   0  0  0  0  0  0  0  0  0  0  0  0
  -11.0845   -1.4646    0.0000 N   0  0  0  0  0  0  0  0  0  0  0  0
  -10.7360   -2.9236    0.0000 C   0  0  0  0  0  0  0  0  0  0  0  0
   -9.9730   -4.2150    0.0000 C   0  0  0  0  0  0  0  0  0  0  0  0
   -8.8632   -5.2241    0.0000 C   0  0  0  0  0  0  0  0  0  0  0  0
   -7.5053   -5.8613    0.0000 C   0  0  0  0  0  0  0  0  0  0  0  0
   -6.0199   -6.0699    0.0000 C   0  0  0  0  0  0  0  0  0  0  0  0
  -12.2092   -2.6412    0.0000 C   0  0  0  0  0  0  0  0  0  0  0  0
  -11.5994   -4.1502    0.0000 C   0  0  0  0  0  0  0  0  0  0  0  0
  -11.3168   -5.6234    0.0000 O   0  0  0  0  0  0  0  0  0  0  0  0
  -13.0933   -4.0159    0.0000 N   0  0  0  0  0  0  0  0  0  0  0  0
  -13.9566   -5.2426    0.0000 C   0  0  0  0  0  0  0  0  0  0  0  0
  -14.3483   -6.6905    0.0000 C   0  0  0  0  0  0  0  0  0  0  0  0
  -15.7982   -7.0753    0.0000 C   0  0  0  0  0  0  0  0  0  0  0  0
  -16.1899   -8.5232    0.0000 C   0  0  0  0  0  0  0  0  0  0  0  0
  -17.2921   -6.9410    0.0000 C   0  0  0  0  0  0  0  0  0  0  0  0
  -15.4506   -5.1083    0.0000 C   0  0  0  0  0  0  0  0  0  0  0  0
  -16.4570   -6.2205    0.0000 O   0  0  0  0  0  0  0  0  0  0  0  0
  -16.0813   -3.7473    0.0000 O   0  0  0  0  0  0  0  0  0  0  0  0
   15.6872    0.6267    0.0000 H   0  0  0  0  0  0  0  0  0  0  0  0
   15.8033   -3.8644    0.0000 H   0  0  0  0  0  0  0  0  0  0  0  0
   18.3787   -5.4028    0.0000 H   0  0  0  0  0  0  0  0  0  0  0  0
   18.2643   -0.1271    0.0000 H   0  0  0  0  0  0  0  0  0  0  0  0
   25.0795    2.1889    0.0000 H   0  0  0  0  0  0  0  0  0  0  0  0
   26.0841   -2.9092    0.0000 H   0  0  0  0  0  0  0  0  0  0  0  0
   23.1407   -3.4893    0.0000 H   0  0  0  0  0  0  0  0  0  0  0  0
   28.0405   -1.1997    0.0000 H   0  0  0  0  0  0  0  0  0  0  0  0
   18.2233   -1.8103    0.0000 H   0  0  0  0  0  0  0  0  0  0  0  0
   16.2249    0.6303    0.0000 H   0  0  0  0  0  0  0  0  0  0  0  0
   20.1620    3.8678    0.0000 H   0  0  0  0  0  0  0  0  0  0  0  0
   17.7033    4.7073    0.0000 H   0  0  0  0  0  0  0  0  0  0  0  0
   13.2724    0.6738    0.0000 H   0  0  0  0  0  0  0  0  0  0  0  0
   10.9589   -2.6913    0.0000 H   0  0  0  0  0  0  0  0  0  0  0  0
   12.8870   -2.7199    0.0000 H   0  0  0  0  0  0  0  0  0  0  0  0
    9.7053    0.3758    0.0000 H   0  0  0  0  0  0  0  0  0  0  0  0
   11.6334    0.3472    0.0000 H   0  0  0  0  0  0  0  0  0  0  0  0
    8.0768    0.7510    0.0000 H   0  0  0  0  0  0  0  0  0  0  0  0
    7.6914   -2.6427    0.0000 H   0  0  0  0  0  0  0  0  0  0  0  0
    4.2868   -2.8785    0.0000 H   0  0  0  0  0  0  0  0  0  0  0  0
    5.2294   -4.0158    0.0000 H   0  0  0  0  0  0  0  0  0  0  0  0
    7.0510   -3.3833    0.0000 H   0  0  0  0  0  0  0  0  0  0  0  0
    3.9417   -2.9267    0.0000 H   0  0  0  0  0  0  0  0  0  0  0  0
    3.9710    0.3350    0.0000 H   0  0  0  0  0  0  0  0  0  0  0  0
    0.8486    1.5497    0.0000 H   0  0  0  0  0  0  0  0  0  0  0  0
    0.7998   -0.5149    0.0000 H   0  0  0  0  0  0  0  0  0  0  0  0
    3.6724    2.7569    0.0000 H   0  0  0  0  0  0  0  0  0  0  0  0
    3.8177    1.2869    0.0000 H   0  0  0  0  0  0  0  0  0  0  0  0
    1.4464    5.8895    0.0000 H   0  0  0  0  0  0  0  0  0  0  0  0
    3.1682    5.5032    0.0000 H   0  0  0  0  0  0  0  0  0  0  0  0
    3.4366    3.9404    0.0000 H   0  0  0  0  0  0  0  0  0  0  0  0
    0.2834    0.8669    0.0000 H   0  0  0  0  0  0  0  0  0  0  0  0
    0.1263   -2.6984    0.0000 H   0  0  0  0  0  0  0  0  0  0  0  0
   -0.4801   -4.0383    0.0000 H   0  0  0  0  0  0  0  0  0  0  0  0
   -0.6878   -4.6276    0.0000 H   0  0  0  0  0  0  0  0  0  0  0  0
   -1.4438   -5.4822    0.0000 H   0  0  0  0  0  0  0  0  0  0  0  0
   -1.8858   -5.9007    0.0000 H   0  0  0  0  0  0  0  0  0  0  0  0
   -3.1416   -6.6661    0.0000 H   0  0  0  0  0  0  0  0  0  0  0  0
   -4.0824   -7.2603    0.0000 H   0  0  0  0  0  0  0  0  0  0  0  0
    0.3901   -3.7642    0.0000 H   0  0  0  0  0  0  0  0  0  0  0  0
    1.5127   -2.8436    0.0000 H   0  0  0  0  0  0  0  0  0  0  0  0
    1.2146   -1.1991    0.0000 H   0  0  0  0  0  0  0  0  0  0  0  0
   -0.3633    2.1217    0.0000 H   0  0  0  0  0  0  0  0  0  0  0  0
   -1.2353    3.0698    0.0000 H   0  0  0  0  0  0  0  0  0  0  0  0
   -2.7149    5.6393    0.0000 H   0  0  0  0  0  0  0  0  0  0  0  0
   -3.8985    4.5131    0.0000 H   0  0  0  0  0  0  0  0  0  0  0  0
    0.0601    2.2408    0.0000 H   0  0  0  0  0  0  0  0  0  0  0  0
    2.6865    3.3140    0.0000 H   0  0  0  0  0  0  0  0  0  0  0  0
    3.4233    7.7533    0.0000 H   0  0  0  0  0  0  0  0  0  0  0  0
    0.8603    8.1787    0.0000 H   0  0  0  0  0  0  0  0  0  0  0  0
   -1.9483    7.1243    0.0000 H   0  0  0  0  0  0  0  0  0  0  0  0
   -4.9825    5.3941    0.0000 H   0  0  0  0  0  0  0  0  0  0  0  0
   -6.2674    5.3035    0.0000 H   0  0  0  0  0  0  0  0  0  0  0  0
   -9.1989    5.7488    0.0000 H   0  0  0  0  0  0  0  0  0  0  0  0
   -9.0564    4.1211    0.0000 H   0  0  0  0  0  0  0  0  0  0  0  0
   -4.6724    6.2079    0.0000 H   0  0  0  0  0  0  0  0  0  0  0  0
   -4.7711    9.3168    0.0000 H   0  0  0  0  0  0  0  0  0  0  0  0
   -7.1399   11.4822    0.0000 H   0  0  0  0  0  0  0  0  0  0  0  0
  -10.1235   11.7955    0.0000 H   0  0  0  0  0  0  0  0  0  0  0  0
  -11.8866    9.3683    0.0000 H   0  0  0  0  0  0  0  0  0  0  0  0
  -10.6661    6.6278    0.0000 H   0  0  0  0  0  0  0  0  0  0  0  0
  -10.5615    3.7054    0.0000 H   0  0  0  0  0  0  0  0  0  0  0  0
  -10.9842    2.8370    0.0000 H   0  0  0  0  0  0  0  0  0  0  0  0
  -13.2442    0.5843    0.0000 H   0  0  0  0  0  0  0  0  0  0  0  0
  -11.9658   -0.1558    0.0000 H   0  0  0  0  0  0  0  0  0  0  0  0
  -12.9454    4.0865    0.0000 H   0  0  0  0  0  0  0  0  0  0  0  0
  -11.4840    3.3558    0.0000 H   0  0  0  0  0  0  0  0  0  0  0  0
  -15.5680    1.7462    0.0000 H   0  0  0  0  0  0  0  0  0  0  0  0
  -14.1066    1.0155    0.0000 H   0  0  0  0  0  0  0  0  0  0  0  0
  -15.4496    5.2168    0.0000 H   0  0  0  0  0  0  0  0  0  0  0  0
  -13.8078    4.5177    0.0000 H   0  0  0  0  0  0  0  0  0  0  0  0
  -17.4249    4.9198    0.0000 H   0  0  0  0  0  0  0  0  0  0  0  0
  -17.9747    3.0715    0.0000 H   0  0  0  0  0  0  0  0  0  0  0  0
  -16.4304    2.1775    0.0000 H   0  0  0  0  0  0  0  0  0  0  0  0
  -12.5791   -1.5918    0.0000 H   0  0  0  0  0  0  0  0  0  0  0  0
  -10.4364   -5.6416    0.0000 H   0  0  0  0  0  0  0  0  0  0  0  0
  -11.3799   -4.7353    0.0000 H   0  0  0  0  0  0  0  0  0  0  0  0
   -9.0682   -6.7101    0.0000 H   0  0  0  0  0  0  0  0  0  0  0  0
  -10.0542   -6.1360    0.0000 H   0  0  0  0  0  0  0  0  0  0  0  0
   -7.0845   -7.3011    0.0000 H   0  0  0  0  0  0  0  0  0  0  0  0
   -8.5171   -6.9686    0.0000 H   0  0  0  0  0  0  0  0  0  0  0  0
   -6.0048   -7.5699    0.0000 H   0  0  0  0  0  0  0  0  0  0  0  0
  -13.4358   -3.5046    0.0000 H   0  0  0  0  0  0  0  0  0  0  0  0
  -13.3936   -1.7207    0.0000 H   0  0  0  0  0  0  0  0  0  0  0  0
  -12.0304   -1.1519    0.0000 H   0  0  0  0  0  0  0  0  0  0  0  0
  -13.8852   -2.7420    0.0000 H   0  0  0  0  0  0  0  0  0  0  0  0
  -12.5987   -5.8798    0.0000 H   0  0  0  0  0  0  0  0  0  0  0  0
  -14.0400   -8.1585    0.0000 H   0  0  0  0  0  0  0  0  0  0  0  0
  -12.8544   -6.8248    0.0000 H   0  0  0  0  0  0  0  0  0  0  0  0
  -16.4526   -5.7256    0.0000 H   0  0  0  0  0  0  0  0  0  0  0  0
  -17.5820   -9.0818    0.0000 H   0  0  0  0  0  0  0  0  0  0  0  0
  -16.0627  -10.0178    0.0000 H   0  0  0  0  0  0  0  0  0  0  0  0
  -14.7234   -8.8387    0.0000 H   0  0  0  0  0  0  0  0  0  0  0  0
  -18.2985   -8.0532    0.0000 H   0  0  0  0  0  0  0  0  0  0  0  0
  -18.6501   -6.3038    0.0000 H   0  0  0  0  0  0  0  0  0  0  0  0
  -16.9004   -5.4930    0.0000 H   0  0  0  0  0  0  0  0  0  0  0  0
  1  2  1  0
  2  3  1  0
  3  4  2  0
  4  5  1  0
  5  6  2  0
  6  7  1  0
  7  8  2  0
  7  9  1  0
  9 10  1  0
 10 11  1  0
 11 12  2  0
  9 13  1  0
 13 14  1  0
 14 15  2  0
 15 16  1  0
 16 17  2  0
 17 18  1  0
 16 19  1  0
 14 20  1  0
 20 21  1  0
 21 22  2  0
 22 23  1  0
 23 24  2  0
 24 25  1  0
 25 26  2  0
 25 27  1  0
  1 28  2  0
  1 29  1  0
 29 30  1  0
 30 31  1  0
 31 32  1  0
 32 33  2  0
 32 34  1  0
 34 35  1  0
 35 36  1  0
 35 37  1  0
 37 38  2  0
 37 39  1  0
 39 40  1  0
 40 41  1  0
 41 42  1  0
 42 43  1  0
 43 44  1  0
 40 45  1  0
 45 46  2  0
 45 47  1  0
 48 47  1  1
 48 49  1  0
 49 50  1  0
 50 51  1  0
 51 52  1  0
 48 53  1  0
 48 54  1  0
 54 55  2  0
 54 56  1  0
 56 57  1  0
 57 58  1  0
 58 59  1  0
 59 60  2  0
 60 61  1  0
 61 62  2  0
 62 63  1  0
 62 64  1  0
 64 65  2  0
 57 66  1  0
 66 67  2  0
 66 68  1  0
 68 69  1  0
 69 70  1  0
 70 71  1  0
 71 72  2  0
 72 73  1  0
 73 74  1  0
 74 75  2  0
 75 76  1  0
 76 77  2  0
 77 78  1  0
 78 79  2  0
 69 80  1  0
 80 81  2  0
 80 82  1  0
 82 83  1  0
 83 84  1  0
 84 85  1  0
 85 86  1  0
 86 87  1  0
 87 88  1  0
 83 89  1  0
 89 90  2  0
 89 91  1  0
 91 92  1  0
 92 93  1  0
 93 94  1  0
 94 95  1  0
 95 96  1  0
 92 97  1  0
 92 98  1  1
 98 99  2  0
 98100  1  0
100101  1  0
101102  1  0
102103  1  0
103104  1  0
103105  1  0
101106  1  0
106107  2  0
106108  1  0
  8  3  1  0
 65 59  1  0
 79 71  1  0
 11  6  1  0
 79 74  1  0
 18 13  2  0
 52 96  2  0
 22  9  1  0
 26 21  1  0
  2109  1  0
  4110  1  0
  5111  1  0
  8112  1  0
 15113  1  0
 17114  1  0
 18115  1  0
 19116  1  0
 23117  1  0
 24118  1  0
 26119  1  0
 27120  1  0
 29121  1  0
 30122  1  0
 30123  1  0
 31124  1  0
 31125  1  0
 34126  1  0
 35127  1  1
 36128  1  0
 36129  1  0
 36130  1  0
 39131  1  0
 40132  1  6
 41133  1  0
 41134  1  0
 42135  1  0
 42136  1  0
 44137  1  0
 44138  1  0
 44139  1  0
 47140  1  0
 49141  1  0
 49142  1  0
 50143  1  0
 50144  1  0
 51145  1  0
 51146  1  0
 52147  1  0
 53148  1  0
 53149  1  0
 53150  1  0
 56151  1  0
 57152  1  6
 58153  1  0
 58154  1  0
 60155  1  0
 61156  1  0
 63157  1  0
 64158  1  0
 65159  1  0
 68160  1  0
 69161  1  6
 70162  1  0
 70163  1  0
 72164  1  0
 73165  1  0
 75166  1  0
 76167  1  0
 77168  1  0
 78169  1  0
 82170  1  0
 83171  1  6
 84172  1  0
 84173  1  0
 85174  1  0
 85175  1  0
 86176  1  0
 86177  1  0
 87178  1  0
 87179  1  0
 88180  1  0
 88181  1  0
 88182  1  0
 91183  1  0
 93184  1  0
 93185  1  0
 94186  1  0
 94187  1  0
 95188  1  0
 95189  1  0
 96190  1  0
 97191  1  0
 97192  1  0
 97193  1  0
100194  1  0
101195  1  1
102196  1  0
102197  1  0
103198  1  0
104199  1  0
104200  1  0
104201  1  0
105202  1  0
105203  1  0
105204  1  0
M  CHG  2  88   1 108  -1
M  END
