
     RDKit          2D

371376  0  0  0  0  0  0  0  0999 V2000
   22.3940   -0.2663    0.0000 C   0  0  0  0  0  0  0  0  0  0  0  0
   23.3713    0.8715    0.0000 N   0  0  0  0  0  0  0  0  0  0  0  0
   24.8455    0.5940    0.0000 C   0  0  0  0  0  0  0  0  0  0  0  0
   25.3422   -0.8213    0.0000 C   0  0  0  0  0  0  0  0  0  0  0  0
   26.8163   -1.0988    0.0000 C   0  0  0  0  0  0  0  0  0  0  0  0
   27.7937    0.0391    0.0000 C   0  0  0  0  0  0  0  0  0  0  0  0
   27.2969    1.4544    0.0000 C   0  0  0  0  0  0  0  0  0  0  0  0
   25.8228    1.7319    0.0000 C   0  0  0  0  0  0  0  0  0  0  0  0
   28.4895    2.3642    0.0000 C   0  0  0  0  0  0  0  0  0  0  0  0
   29.7233    1.5112    0.0000 O   0  0  0  0  0  0  0  0  0  0  0  0
   29.2933    0.0741    0.0000 C   0  0  0  0  0  0  0  0  0  0  0  0
   30.2031   -1.1185    0.0000 O   0  0  0  0  0  0  0  0  0  0  0  0
   29.7707    3.1444    0.0000 C   0  0  0  0  0  0  0  0  0  0  0  0
   29.7356    4.6440    0.0000 C   0  0  0  0  0  0  0  0  0  0  0  0
   31.0168    5.4241    0.0000 C   0  0  0  0  0  0  0  0  0  0  0  0
   32.3330    4.7047    0.0000 C   0  0  0  0  0  0  0  0  0  0  0  0
   32.3680    3.2051    0.0000 C   0  0  0  0  0  0  0  0  0  0  0  0
   31.0869    2.4250    0.0000 C   0  0  0  0  0  0  0  0  0  0  0  0
   33.6141    5.4849    0.0000 O   0  0  0  0  0  0  0  0  0  0  0  0
   28.4194    5.3634    0.0000 O   0  0  0  0  0  0  0  0  0  0  0  0
   27.1382    4.5832    0.0000 C   0  0  0  0  0  0  0  0  0  0  0  0
   27.1733    3.0837    0.0000 C   0  0  0  0  0  0  0  0  0  0  0  0
   25.8758    3.0033    0.0000 C   0  0  0  0  0  0  0  0  0  0  0  0
   25.1738    3.3870    0.0000 C   0  0  0  0  0  0  0  0  0  0  0  0
   25.1551    4.1868    0.0000 C   0  0  0  0  0  0  0  0  0  0  0  0
   25.8384    4.6029    0.0000 C   0  0  0  0  0  0  0  0  0  0  0  0
   23.2247    5.2420    0.0000 O   0  0  0  0  0  0  0  0  0  0  0  0
   22.8907   -1.6817    0.0000 S   0  0  0  0  0  0  0  0  0  0  0  0
   20.9199    0.0111    0.0000 N   0  0  0  0  0  0  0  0  0  0  0  0
   19.9425   -1.1267    0.0000 C   0  0  0  0  0  0  0  0  0  0  0  0
   18.4684   -0.8492    0.0000 C   0  0  0  0  0  0  0  0  0  0  0  0
   17.4910   -1.9871    0.0000 C   0  0  0  0  0  0  0  0  0  0  0  0
   17.9292   -2.6531    0.0000 O   0  0  0  0  0  0  0  0  0  0  0  0
   16.0169   -1.7096    0.0000 N   0  0  0  0  0  0  0  0  0  0  0  0
   15.0396   -2.8475    0.0000 C   0  0  0  0  0  0  0  0  0  0  0  0
   16.3299   -3.6124    0.0000 C   0  0  0  0  0  0  0  0  0  0  0  0
   17.6375   -2.8775    0.0000 C   0  0  0  0  0  0  0  0  0  0  0  0
   18.9278   -3.6424    0.0000 C   0  0  0  0  0  0  0  0  0  0  0  0
   20.2354   -2.9074    0.0000 N   0  0  0  0  0  0  0  0  0  0  0  0
   21.5257   -3.6723    0.0000 C   0  0  0  0  0  0  0  0  0  0  0  0
   22.8333   -2.9374    0.0000 N   0  0  0  0  0  0  0  0  0  0  0  0
   21.5084   -5.1722    0.0000 N   0  0  0  0  0  0  0  0  0  0  0  0
   13.7320   -3.5825    0.0000 C   0  0  0  0  0  0  0  0  0  0  0  0
   14.0781   -5.0420    0.0000 O   0  0  0  0  0  0  0  0  0  0  0  0
   12.4416   -2.8175    0.0000 N   0  0  0  0  0  0  0  0  0  0  0  0
   11.1340   -3.5525    0.0000 C   0  0  0  0  0  0  0  0  0  0  0  0
   12.0849   -4.7126    0.0000 C   0  0  0  0  0  0  0  0  0  0  0  0
   13.5650   -4.4692    0.0000 C   0  0  0  0  0  0  0  0  0  0  0  0
   14.5159   -5.6293    0.0000 C   0  0  0  0  0  0  0  0  0  0  0  0
   15.9960   -5.3859    0.0000 N   0  0  0  0  0  0  0  0  0  0  0  0
   16.9469   -6.5460    0.0000 C   0  0  0  0  0  0  0  0  0  0  0  0
   18.4270   -6.3026    0.0000 N   0  0  0  0  0  0  0  0  0  0  0  0
   16.4176   -7.9495    0.0000 N   0  0  0  0  0  0  0  0  0  0  0  0
    9.6539   -3.7959    0.0000 C   0  0  0  0  0  0  0  0  0  0  0  0
    9.4800   -5.2858    0.0000 O   0  0  0  0  0  0  0  0  0  0  0  0
    8.7031   -2.6358    0.0000 N   0  0  0  0  0  0  0  0  0  0  0  0
    7.2229   -2.8792    0.0000 C   0  0  0  0  0  0  0  0  0  0  0  0
    7.7197   -4.2946    0.0000 C   0  0  0  0  0  0  0  0  0  0  0  0
    9.1938   -4.5721    0.0000 C   0  0  0  0  0  0  0  0  0  0  0  0
    9.6905   -5.9875    0.0000 C   0  0  0  0  0  0  0  0  0  0  0  0
   11.1647   -6.2649    0.0000 N   0  0  0  0  0  0  0  0  0  0  0  0
   11.6614   -7.6803    0.0000 C   0  0  0  0  0  0  0  0  0  0  0  0
   13.1355   -7.9578    0.0000 N   0  0  0  0  0  0  0  0  0  0  0  0
   10.6840   -8.8182    0.0000 N   0  0  0  0  0  0  0  0  0  0  0  0
    5.7488   -2.6018    0.0000 C   0  0  0  0  0  0  0  0  0  0  0  0
    5.0759   -3.9423    0.0000 O   0  0  0  0  0  0  0  0  0  0  0  0
    5.2521   -1.1864    0.0000 N   0  0  0  0  0  0  0  0  0  0  0  0
    3.7780   -0.9089    0.0000 C   0  0  0  0  0  0  0  0  0  0  0  0
    3.7607   -2.4088    0.0000 C   0  0  0  0  0  0  0  0  0  0  0  0
    5.0510   -3.1737    0.0000 C   0  0  0  0  0  0  0  0  0  0  0  0
    5.0337   -4.6736    0.0000 C   0  0  0  0  0  0  0  0  0  0  0  0
    6.3240   -5.4386    0.0000 N   0  0  0  0  0  0  0  0  0  0  0  0
    6.3067   -6.9385    0.0000 C   0  0  0  0  0  0  0  0  0  0  0  0
    7.5970   -7.7034    0.0000 N   0  0  0  0  0  0  0  0  0  0  0  0
    4.9991   -7.6734    0.0000 N   0  0  0  0  0  0  0  0  0  0  0  0
    2.4877   -0.1440    0.0000 C   0  0  0  0  0  0  0  0  0  0  0  0
    1.3968   -1.1735    0.0000 O   0  0  0  0  0  0  0  0  0  0  0  0
    2.5050    1.3559    0.0000 N   0  0  0  0  0  0  0  0  0  0  0  0
    1.2147    2.1209    0.0000 C   0  0  0  0  0  0  0  0  0  0  0  0
    1.1023    0.6251    0.0000 C   0  0  0  0  0  0  0  0  0  0  0  0
    0.7088   -0.8224    0.0000 C   0  0  0  0  0  0  0  0  0  0  0  0
    0.0486   -2.1693    0.0000 C   0  0  0  0  0  0  0  0  0  0  0  0
   -0.8547   -3.3669    0.0000 C   0  0  0  0  0  0  0  0  0  0  0  0
   -1.9682   -4.3718    0.0000 C   0  0  0  0  0  0  0  0  0  0  0  0
   -3.2518   -5.1479    0.0000 C   0  0  0  0  0  0  0  0  0  0  0  0
   -4.6591   -5.6671    0.0000 C   0  0  0  0  0  0  0  0  0  0  0  0
    2.4730    2.9373    0.0000 C   0  0  0  0  0  0  0  0  0  0  0  0
    1.0420    3.6109    0.0000 C   0  0  0  0  0  0  0  0  0  0  0  0
    2.4597    4.1009    0.0000 O   0  0  0  0  0  0  0  0  0  0  0  0
    0.5904    5.0413    0.0000 N   0  0  0  0  0  0  0  0  0  0  0  0
   -0.1238    6.3604    0.0000 C   0  0  0  0  0  0  0  0  0  0  0  0
    0.4934    7.7275    0.0000 C   0  0  0  0  0  0  0  0  0  0  0  0
    1.9860    7.8766    0.0000 C   0  0  0  0  0  0  0  0  0  0  0  0
    2.6032    9.2437    0.0000 C   0  0  0  0  0  0  0  0  0  0  0  0
    4.0958    9.3928    0.0000 N   0  0  0  0  0  0  0  0  0  0  0  0
    4.7130   10.7599    0.0000 C   0  0  0  0  0  0  0  0  0  0  0  0
    6.2056   10.9090    0.0000 N   0  0  0  0  0  0  0  0  0  0  0  0
    3.8376   11.9780    0.0000 N   0  0  0  0  0  0  0  0  0  0  0  0
   -1.0746    7.5205    0.0000 C   0  0  0  0  0  0  0  0  0  0  0  0
   -0.1469    8.6992    0.0000 O   0  0  0  0  0  0  0  0  0  0  0  0
   -2.2279    8.4797    0.0000 N   0  0  0  0  0  0  0  0  0  0  0  0
   -3.5418    9.2033    0.0000 C   0  0  0  0  0  0  0  0  0  0  0  0
   -3.7617   10.6871    0.0000 C   0  0  0  0  0  0  0  0  0  0  0  0
   -2.5867   11.6194    0.0000 C   0  0  0  0  0  0  0  0  0  0  0  0
   -2.8066   13.1032    0.0000 C   0  0  0  0  0  0  0  0  0  0  0  0
   -1.6315   14.0356    0.0000 N   0  0  0  0  0  0  0  0  0  0  0  0
   -4.2015   13.6547    0.0000 O   0  0  0  0  0  0  0  0  0  0  0  0
   -4.9689    9.6652    0.0000 C   0  0  0  0  0  0  0  0  0  0  0  0
   -4.8257   11.1583    0.0000 O   0  0  0  0  0  0  0  0  0  0  0  0
   -6.4577    9.8486    0.0000 N   0  0  0  0  0  0  0  0  0  0  0  0
   -7.9542    9.7470    0.0000 C   0  0  0  0  0  0  0  0  0  0  0  0
   -8.9414   10.8763    0.0000 C   0  0  0  0  0  0  0  0  0  0  0  0
   -8.4570   12.2959    0.0000 C   0  0  0  0  0  0  0  0  0  0  0  0
   -9.4442   13.4253    0.0000 C   0  0  0  0  0  0  0  0  0  0  0  0
   -8.9597   14.8449    0.0000 N   0  0  0  0  0  0  0  0  0  0  0  0
   -9.9469   15.9743    0.0000 C   0  0  0  0  0  0  0  0  0  0  0  0
   -9.4624   17.3939    0.0000 N   0  0  0  0  0  0  0  0  0  0  0  0
  -11.4185   15.6840    0.0000 N   0  0  0  0  0  0  0  0  0  0  0  0
   -9.4045    9.3639    0.0000 C   0  0  0  0  0  0  0  0  0  0  0  0
  -10.0913   10.6975    0.0000 O   0  0  0  0  0  0  0  0  0  0  0  0
  -10.7561    8.7134    0.0000 N   0  0  0  0  0  0  0  0  0  0  0  0
  -11.9601    7.8188    0.0000 C   0  0  0  0  0  0  0  0  0  0  0  0
  -13.4012    8.2352    0.0000 C   0  0  0  0  0  0  0  0  0  0  0  0
  -13.7611    9.6913    0.0000 C   0  0  0  0  0  0  0  0  0  0  0  0
  -15.2022   10.1077    0.0000 C   0  0  0  0  0  0  0  0  0  0  0  0
  -15.5621   11.5638    0.0000 N   0  0  0  0  0  0  0  0  0  0  0  0
  -17.0032   11.9802    0.0000 C   0  0  0  0  0  0  0  0  0  0  0  0
  -17.3631   13.4364    0.0000 N   0  0  0  0  0  0  0  0  0  0  0  0
  -18.0843   10.9404    0.0000 N   0  0  0  0  0  0  0  0  0  0  0  0
  -12.9731    6.7125    0.0000 C   0  0  0  0  0  0  0  0  0  0  0  0
  -14.2718    7.4630    0.0000 O   0  0  0  0  0  0  0  0  0  0  0  0
  -13.7584    5.4345    0.0000 N   0  0  0  0  0  0  0  0  0  0  0  0
  -14.2876    4.0310    0.0000 C   0  0  0  0  0  0  0  0  0  0  0  0
  -15.7250    3.6021    0.0000 C   0  0  0  0  0  0  0  0  0  0  0  0
  -16.8151    4.6325    0.0000 C   0  0  0  0  0  0  0  0  0  0  0  0
  -18.2525    4.2037    0.0000 C   0  0  0  0  0  0  0  0  0  0  0  0
  -19.3426    5.2341    0.0000 N   0  0  0  0  0  0  0  0  0  0  0  0
  -20.7800    4.8053    0.0000 C   0  0  0  0  0  0  0  0  0  0  0  0
  -21.8701    5.8357    0.0000 N   0  0  0  0  0  0  0  0  0  0  0  0
  -21.1273    3.3460    0.0000 N   0  0  0  0  0  0  0  0  0  0  0  0
  -14.5417    2.5526    0.0000 C   0  0  0  0  0  0  0  0  0  0  0  0
  -16.0400    2.4819    0.0000 O   0  0  0  0  0  0  0  0  0  0  0  0
  -14.5114    1.0530    0.0000 N   0  0  0  0  0  0  0  0  0  0  0  0
  -14.1978   -0.4139    0.0000 C   0  0  0  0  0  0  0  0  0  0  0  0
  -15.1752   -1.5518    0.0000 C   0  0  0  0  0  0  0  0  0  0  0  0
  -16.6493   -1.2743    0.0000 C   0  0  0  0  0  0  0  0  0  0  0  0
  -17.6267   -2.4122    0.0000 C   0  0  0  0  0  0  0  0  0  0  0  0
  -19.1008   -2.1347    0.0000 N   0  0  0  0  0  0  0  0  0  0  0  0
  -20.0781   -3.2725    0.0000 C   0  0  0  0  0  0  0  0  0  0  0  0
  -21.5523   -2.9951    0.0000 N   0  0  0  0  0  0  0  0  0  0  0  0
  -19.5814   -4.6879    0.0000 N   0  0  0  0  0  0  0  0  0  0  0  0
  -13.6123   -1.7949    0.0000 C   0  0  0  0  0  0  0  0  0  0  0  0
  -14.8345   -2.6645    0.0000 O   0  0  0  0  0  0  0  0  0  0  0  0
  -12.7760   -3.0402    0.0000 N   0  0  0  0  0  0  0  0  0  0  0  0
  -11.7192   -4.1046    0.0000 C   0  0  0  0  0  0  0  0  0  0  0  0
  -10.4800   -4.9498    0.0000 C   0  0  0  0  0  0  0  0  0  0  0  0
   -9.1032   -5.5453    0.0000 C   0  0  0  0  0  0  0  0  0  0  0  0
   -7.6387   -5.8694    0.0000 C   0  0  0  0  0  0  0  0  0  0  0  0
   -6.1392   -5.9105    0.0000 C   0  0  0  0  0  0  0  0  0  0  0  0
  -13.1423   -4.5788    0.0000 C   0  0  0  0  0  0  0  0  0  0  0  0
  -11.9262   -5.5903    0.0000 C   0  0  0  0  0  0  0  0  0  0  0  0
  -11.0014   -6.7713    0.0000 O   0  0  0  0  0  0  0  0  0  0  0  0
  -13.3163   -6.1538    0.0000 N   0  0  0  0  0  0  0  0  0  0  0  0
  -13.5234   -7.6394    0.0000 C   0  0  0  0  0  0  0  0  0  0  0  0
  -13.2098   -9.1063    0.0000 C   0  0  0  0  0  0  0  0  0  0  0  0
  -14.3234  -10.1113    0.0000 C   0  0  0  0  0  0  0  0  0  0  0  0
  -14.0098  -11.5781    0.0000 C   0  0  0  0  0  0  0  0  0  0  0  0
  -15.1233  -12.5831    0.0000 N   0  0  0  0  0  0  0  0  0  0  0  0
  -14.8098  -14.0500    0.0000 C   0  0  0  0  0  0  0  0  0  0  0  0
  -15.9233  -15.0550    0.0000 N   0  0  0  0  0  0  0  0  0  0  0  0
  -13.3826  -14.5119    0.0000 N   0  0  0  0  0  0  0  0  0  0  0  0
  -14.9135   -8.2030    0.0000 C   0  0  0  0  0  0  0  0  0  0  0  0
  -16.0966   -7.2808    0.0000 O   0  0  0  0  0  0  0  0  0  0  0  0
  -15.1205   -9.6886    0.0000 N   0  0  0  0  0  0  0  0  0  0  0  0
  -16.5107  -10.2521    0.0000 C   0  0  0  0  0  0  0  0  0  0  0  0
  -18.0097  -10.3062    0.0000 C   0  0  0  0  0  0  0  0  0  0  0  0
  -18.8060   -9.0351    0.0000 C   0  0  0  0  0  0  0  0  0  0  0  0
  -20.3051   -9.0892    0.0000 C   0  0  0  0  0  0  0  0  0  0  0  0
  -21.1014   -7.8180    0.0000 N   0  0  0  0  0  0  0  0  0  0  0  0
  -22.6004   -7.8721    0.0000 C   0  0  0  0  0  0  0  0  0  0  0  0
  -23.3968   -6.6010    0.0000 N   0  0  0  0  0  0  0  0  0  0  0  0
  -23.3031   -9.1973    0.0000 N   0  0  0  0  0  0  0  0  0  0  0  0
  -16.7177  -11.7378    0.0000 C   0  0  0  0  0  0  0  0  0  0  0  0
  -18.0288  -12.4665    0.0000 O   0  0  0  0  0  0  0  0  0  0  0  0
  -15.7929  -12.9188    0.0000 O   0  0  0  0  0  0  0  0  0  0  0  0
   22.7058    2.2158    0.0000 H   0  0  0  0  0  0  0  0  0  0  0  0
   24.3648   -1.9592    0.0000 H   0  0  0  0  0  0  0  0  0  0  0  0
   27.3131   -2.5142    0.0000 H   0  0  0  0  0  0  0  0  0  0  0  0
   24.9984    2.9850    0.0000 H   0  0  0  0  0  0  0  0  0  0  0  0
   30.9817    6.9237    0.0000 H   0  0  0  0  0  0  0  0  0  0  0  0
   33.6843    2.4857    0.0000 H   0  0  0  0  0  0  0  0  0  0  0  0
   31.1219    0.9254    0.0000 H   0  0  0  0  0  0  0  0  0  0  0  0
   34.9303    4.7654    0.0000 H   0  0  0  0  0  0  0  0  0  0  0  0
   25.9272    0.8039    0.0000 H   0  0  0  0  0  0  0  0  0  0  0  0
   23.2092    2.4048    0.0000 H   0  0  0  0  0  0  0  0  0  0  0  0
   25.7870    6.8023    0.0000 H   0  0  0  0  0  0  0  0  0  0  0  0
   23.1896    6.7415    0.0000 H   0  0  0  0  0  0  0  0  0  0  0  0
   20.4231    1.4265    0.0000 H   0  0  0  0  0  0  0  0  0  0  0  0
   21.2328   -1.8917    0.0000 H   0  0  0  0  0  0  0  0  0  0  0  0
   19.7686   -2.6166    0.0000 H   0  0  0  0  0  0  0  0  0  0  0  0
   18.9976    0.5543    0.0000 H   0  0  0  0  0  0  0  0  0  0  0  0
   17.1781   -0.0843    0.0000 H   0  0  0  0  0  0  0  0  0  0  0  0
   15.5202   -0.2943    0.0000 H   0  0  0  0  0  0  0  0  0  0  0  0
   14.0887   -1.6874    0.0000 H   0  0  0  0  0  0  0  0  0  0  0  0
   17.1322   -4.8798    0.0000 H   0  0  0  0  0  0  0  0  0  0  0  0
   15.6569   -4.9530    0.0000 H   0  0  0  0  0  0  0  0  0  0  0  0
   18.6148   -1.7396    0.0000 H   0  0  0  0  0  0  0  0  0  0  0  0
   16.9956   -1.5217    0.0000 H   0  0  0  0  0  0  0  0  0  0  0  0
   19.8786   -4.8025    0.0000 H   0  0  0  0  0  0  0  0  0  0  0  0
   18.0964   -4.8909    0.0000 H   0  0  0  0  0  0  0  0  0  0  0  0
   20.6151   -1.4563    0.0000 H   0  0  0  0  0  0  0  0  0  0  0  0
   24.1236   -3.7023    0.0000 H   0  0  0  0  0  0  0  0  0  0  0  0
   22.7987   -5.9372    0.0000 H   0  0  0  0  0  0  0  0  0  0  0  0
   20.2008   -5.9072    0.0000 H   0  0  0  0  0  0  0  0  0  0  0  0
   12.4589   -1.3176    0.0000 H   0  0  0  0  0  0  0  0  0  0  0  0
   10.6373   -2.1371    0.0000 H   0  0  0  0  0  0  0  0  0  0  0  0
   12.4054   -6.1780    0.0000 H   0  0  0  0  0  0  0  0  0  0  0  0
   10.9940   -5.7422    0.0000 H   0  0  0  0  0  0  0  0  0  0  0  0
   14.8726   -3.7342    0.0000 H   0  0  0  0  0  0  0  0  0  0  0  0
   13.4255   -2.9757    0.0000 H   0  0  0  0  0  0  0  0  0  0  0  0
   15.0126   -7.0447    0.0000 H   0  0  0  0  0  0  0  0  0  0  0  0
   13.3076   -6.5182    0.0000 H   0  0  0  0  0  0  0  0  0  0  0  0
   16.8492   -4.1521    0.0000 H   0  0  0  0  0  0  0  0  0  0  0  0
   19.3779   -7.4627    0.0000 H   0  0  0  0  0  0  0  0  0  0  0  0
   17.3685   -9.1096    0.0000 H   0  0  0  0  0  0  0  0  0  0  0  0
   14.9375   -8.1929    0.0000 H   0  0  0  0  0  0  0  0  0  0  0  0
    9.2323   -1.2323    0.0000 H   0  0  0  0  0  0  0  0  0  0  0  0
    7.2402   -1.3793    0.0000 H   0  0  0  0  0  0  0  0  0  0  0  0
    7.5197   -5.7812    0.0000 H   0  0  0  0  0  0  0  0  0  0  0  0
    6.3425   -4.8889    0.0000 H   0  0  0  0  0  0  0  0  0  0  0  0
   10.6739   -4.3287    0.0000 H   0  0  0  0  0  0  0  0  0  0  0  0
    9.5735   -3.1210    0.0000 H   0  0  0  0  0  0  0  0  0  0  0  0
    9.6732   -7.4874    0.0000 H   0  0  0  0  0  0  0  0  0  0  0  0
    8.2511   -6.4095    0.0000 H   0  0  0  0  0  0  0  0  0  0  0  0
   12.3883   -5.3974    0.0000 H   0  0  0  0  0  0  0  0  0  0  0  0
   13.6322   -9.3732    0.0000 H   0  0  0  0  0  0  0  0  0  0  0  0
   11.1808  -10.2335    0.0000 H   0  0  0  0  0  0  0  0  0  0  0  0
    9.2099   -8.5407    0.0000 H   0  0  0  0  0  0  0  0  0  0  0  0
    6.2295   -0.0485    0.0000 H   0  0  0  0  0  0  0  0  0  0  0  0
    4.3072    0.4946    0.0000 H   0  0  0  0  0  0  0  0  0  0  0  0
    3.0643   -3.7374    0.0000 H   0  0  0  0  0  0  0  0  0  0  0  0
    2.2866   -2.1313    0.0000 H   0  0  0  0  0  0  0  0  0  0  0  0
    6.5251   -3.4512    0.0000 H   0  0  0  0  0  0  0  0  0  0  0  0
    5.9041   -1.9400    0.0000 H   0  0  0  0  0  0  0  0  0  0  0  0
    4.5044   -6.0772    0.0000 H   0  0  0  0  0  0  0  0  0  0  0  0
    3.5368   -4.5779    0.0000 H   0  0  0  0  0  0  0  0  0  0  0  0
    7.7706   -5.0418    0.0000 H   0  0  0  0  0  0  0  0  0  0  0  0
    7.5797   -9.2033    0.0000 H   0  0  0  0  0  0  0  0  0  0  0  0
    4.9818   -9.1733    0.0000 H   0  0  0  0  0  0  0  0  0  0  0  0
    3.7088   -6.9085    0.0000 H   0  0  0  0  0  0  0  0  0  0  0  0
    3.8924    1.9260    0.0000 H   0  0  0  0  0  0  0  0  0  0  0  0
    2.5875    0.8355    0.0000 H   0  0  0  0  0  0  0  0  0  0  0  0
    2.0948   -0.4996    0.0000 H   0  0  0  0  0  0  0  0  0  0  0  0
    2.1867   -1.0789    0.0000 H   0  0  0  0  0  0  0  0  0  0  0  0
    1.6224   -2.0121    0.0000 H   0  0  0  0  0  0  0  0  0  0  0  0
    1.5486   -2.1628    0.0000 H   0  0  0  0  0  0  0  0  0  0  0  0
    0.8790   -3.4185    0.0000 H   0  0  0  0  0  0  0  0  0  0  0  0
    0.5746   -3.8220    0.0000 H   0  0  0  0  0  0  0  0  0  0  0  0
   -0.2757   -4.7506    0.0000 H   0  0  0  0  0  0  0  0  0  0  0  0
   -0.6509   -5.0892    0.0000 H   0  0  0  0  0  0  0  0  0  0  0  0
   -1.6616   -5.8402    0.0000 H   0  0  0  0  0  0  0  0  0  0  0  0
   -2.0941   -6.1017    0.0000 H   0  0  0  0  0  0  0  0  0  0  0  0
   -3.4116   -6.6394    0.0000 H   0  0  0  0  0  0  0  0  0  0  0  0
   -4.2761   -7.1173    0.0000 H   0  0  0  0  0  0  0  0  0  0  0  0
    3.8824    2.4237    0.0000 H   0  0  0  0  0  0  0  0  0  0  0  0
    3.5155    4.0158    0.0000 H   0  0  0  0  0  0  0  0  0  0  0  0
    1.7464    4.2496    0.0000 H   0  0  0  0  0  0  0  0  0  0  0  0
    2.0324    5.4541    0.0000 H   0  0  0  0  0  0  0  0  0  0  0  0
    1.3707    6.2313    0.0000 H   0  0  0  0  0  0  0  0  0  0  0  0
    0.6058    9.2233    0.0000 H   0  0  0  0  0  0  0  0  0  0  0  0
   -0.8273    8.4387    0.0000 H   0  0  0  0  0  0  0  0  0  0  0  0
    3.4396    7.5061    0.0000 H   0  0  0  0  0  0  0  0  0  0  0  0
    2.2389    6.3980    0.0000 H   0  0  0  0  0  0  0  0  0  0  0  0
    2.7156   10.7395    0.0000 H   0  0  0  0  0  0  0  0  0  0  0  0
    1.2057    9.7886    0.0000 H   0  0  0  0  0  0  0  0  0  0  0  0
    4.9712    8.1747    0.0000 H   0  0  0  0  0  0  0  0  0  0  0  0
    6.8228   12.2761    0.0000 H   0  0  0  0  0  0  0  0  0  0  0  0
    4.4548   13.3451    0.0000 H   0  0  0  0  0  0  0  0  0  0  0  0
    2.3450   11.8289    0.0000 H   0  0  0  0  0  0  0  0  0  0  0  0
   -1.2379    9.6066    0.0000 H   0  0  0  0  0  0  0  0  0  0  0  0
   -2.2148    9.9027    0.0000 H   0  0  0  0  0  0  0  0  0  0  0  0
   -4.3097   12.0834    0.0000 H   0  0  0  0  0  0  0  0  0  0  0  0
   -5.2572   10.5713    0.0000 H   0  0  0  0  0  0  0  0  0  0  0  0
   -1.1636   12.0936    0.0000 H   0  0  0  0  0  0  0  0  0  0  0  0
   -1.5746   10.5123    0.0000 H   0  0  0  0  0  0  0  0  0  0  0  0
   -1.8514   15.5193    0.0000 H   0  0  0  0  0  0  0  0  0  0  0  0
   -0.2366   13.4841    0.0000 H   0  0  0  0  0  0  0  0  0  0  0  0
   -6.2341   11.3318    0.0000 H   0  0  0  0  0  0  0  0  0  0  0  0
   -7.2160   11.0527    0.0000 H   0  0  0  0  0  0  0  0  0  0  0  0
  -10.2553   11.5999    0.0000 H   0  0  0  0  0  0  0  0  0  0  0  0
  -10.1369    9.9704    0.0000 H   0  0  0  0  0  0  0  0  0  0  0  0
   -7.5162   13.4642    0.0000 H   0  0  0  0  0  0  0  0  0  0  0  0
   -7.0070   11.9118    0.0000 H   0  0  0  0  0  0  0  0  0  0  0  0
  -10.7581   14.1489    0.0000 H   0  0  0  0  0  0  0  0  0  0  0  0
  -10.5203   12.3804    0.0000 H   0  0  0  0  0  0  0  0  0  0  0  0
   -7.4881   15.1352    0.0000 H   0  0  0  0  0  0  0  0  0  0  0  0
  -10.4496   18.5232    0.0000 H   0  0  0  0  0  0  0  0  0  0  0  0
  -12.4057   16.8134    0.0000 H   0  0  0  0  0  0  0  0  0  0  0  0
  -11.9030   14.2644    0.0000 H   0  0  0  0  0  0  0  0  0  0  0  0
  -11.3699   10.0820    0.0000 H   0  0  0  0  0  0  0  0  0  0  0  0
  -12.0451    9.3164    0.0000 H   0  0  0  0  0  0  0  0  0  0  0  0
  -14.8977    8.1335    0.0000 H   0  0  0  0  0  0  0  0  0  0  0  0
  -13.9171    6.8267    0.0000 H   0  0  0  0  0  0  0  0  0  0  0  0
  -13.6013   11.1828    0.0000 H   0  0  0  0  0  0  0  0  0  0  0  0
  -12.3336   10.1521    0.0000 H   0  0  0  0  0  0  0  0  0  0  0  0
  -16.6987   10.0061    0.0000 H   0  0  0  0  0  0  0  0  0  0  0  0
  -15.5426    8.6468    0.0000 H   0  0  0  0  0  0  0  0  0  0  0  0
  -14.4810   12.6037    0.0000 H   0  0  0  0  0  0  0  0  0  0  0  0
  -18.8042   13.8527    0.0000 H   0  0  0  0  0  0  0  0  0  0  0  0
  -19.5254   11.3567    0.0000 H   0  0  0  0  0  0  0  0  0  0  0  0
  -17.7243    9.4842    0.0000 H   0  0  0  0  0  0  0  0  0  0  0  0
  -15.0147    6.2540    0.0000 H   0  0  0  0  0  0  0  0  0  0  0  0
  -15.1688    5.2449    0.0000 H   0  0  0  0  0  0  0  0  0  0  0  0
  -16.9291    2.7075    0.0000 H   0  0  0  0  0  0  0  0  0  0  0  0
  -15.3976    2.1383    0.0000 H   0  0  0  0  0  0  0  0  0  0  0  0
  -17.4870    5.9736    0.0000 H   0  0  0  0  0  0  0  0  0  0  0  0
  -15.8633    5.7919    0.0000 H   0  0  0  0  0  0  0  0  0  0  0  0
  -19.4565    3.3091    0.0000 H   0  0  0  0  0  0  0  0  0  0  0  0
  -17.7491    2.7907    0.0000 H   0  0  0  0  0  0  0  0  0  0  0  0
  -18.9953    6.6933    0.0000 H   0  0  0  0  0  0  0  0  0  0  0  0
  -23.3074    5.4068    0.0000 H   0  0  0  0  0  0  0  0  0  0  0  0
  -22.5647    2.9172    0.0000 H   0  0  0  0  0  0  0  0  0  0  0  0
  -20.0372    2.3156    0.0000 H   0  0  0  0  0  0  0  0  0  0  0  0
  -16.0114    1.0632    0.0000 H   0  0  0  0  0  0  0  0  0  0  0  0
  -15.5954    0.1309    0.0000 H   0  0  0  0  0  0  0  0  0  0  0  0
  -15.7044   -2.9553    0.0000 H   0  0  0  0  0  0  0  0  0  0  0  0
  -14.1083   -2.6062    0.0000 H   0  0  0  0  0  0  0  0  0  0  0  0
  -17.9396   -0.5094    0.0000 H   0  0  0  0  0  0  0  0  0  0  0  0
  -16.4754    0.2156    0.0000 H   0  0  0  0  0  0  0  0  0  0  0  0
  -18.1559   -3.8157    0.0000 H   0  0  0  0  0  0  0  0  0  0  0  0
  -16.4392   -3.3287    0.0000 H   0  0  0  0  0  0  0  0  0  0  0  0
  -19.5975   -0.7193    0.0000 H   0  0  0  0  0  0  0  0  0  0  0  0
  -22.5296   -4.1329    0.0000 H   0  0  0  0  0  0  0  0  0  0  0  0
  -20.4128   -5.9364    0.0000 H   0  0  0  0  0  0  0  0  0  0  0  0
  -18.1073   -4.9654    0.0000 H   0  0  0  0  0  0  0  0  0  0  0  0
  -14.0434   -3.8425    0.0000 H   0  0  0  0  0  0  0  0  0  0  0  0
  -10.4021   -6.4478    0.0000 H   0  0  0  0  0  0  0  0  0  0  0  0
  -11.5709   -5.9794    0.0000 H   0  0  0  0  0  0  0  0  0  0  0  0
   -8.9235   -7.0345    0.0000 H   0  0  0  0  0  0  0  0  0  0  0  0
   -9.9796   -6.7627    0.0000 H   0  0  0  0  0  0  0  0  0  0  0  0
   -7.0096   -7.2311    0.0000 H   0  0  0  0  0  0  0  0  0  0  0  0
   -8.4300   -7.1437    0.0000 H   0  0  0  0  0  0  0  0  0  0  0  0
   -6.0376   -7.4070    0.0000 H   0  0  0  0  0  0  0  0  0  0  0  0
  -13.7897   -5.9319    0.0000 H   0  0  0  0  0  0  0  0  0  0  0  0
  -14.6417   -4.5378    0.0000 H   0  0  0  0  0  0  0  0  0  0  0  0
  -13.7147   -3.1924    0.0000 H   0  0  0  0  0  0  0  0  0  0  0  0
  -14.6030   -5.3828    0.0000 H   0  0  0  0  0  0  0  0  0  0  0  0
  -12.0244   -7.5853    0.0000 H   0  0  0  0  0  0  0  0  0  0  0  0
  -12.2644  -10.2709    0.0000 H   0  0  0  0  0  0  0  0  0  0  0  0
  -11.8197   -8.5428    0.0000 H   0  0  0  0  0  0  0  0  0  0  0  0
  -15.7135  -10.6748    0.0000 H   0  0  0  0  0  0  0  0  0  0  0  0
  -15.6233   -9.3629    0.0000 H   0  0  0  0  0  0  0  0  0  0  0  0
  -13.2134  -12.8493    0.0000 H   0  0  0  0  0  0  0  0  0  0  0  0
  -12.5613  -11.1883    0.0000 H   0  0  0  0  0  0  0  0  0  0  0  0
  -16.6198  -12.4803    0.0000 H   0  0  0  0  0  0  0  0  0  0  0  0
  -15.6097  -16.5218    0.0000 H   0  0  0  0  0  0  0  0  0  0  0  0
  -13.0691  -15.9787    0.0000 H   0  0  0  0  0  0  0  0  0  0  0  0
  -12.2691  -13.5069    0.0000 H   0  0  0  0  0  0  0  0  0  0  0  0
  -14.1957  -10.8696    0.0000 H   0  0  0  0  0  0  0  0  0  0  0  0
  -16.6431   -8.7580    0.0000 H   0  0  0  0  0  0  0  0  0  0  0  0
  -19.3207  -11.0350    0.0000 H   0  0  0  0  0  0  0  0  0  0  0  0
  -17.8773  -11.8004    0.0000 H   0  0  0  0  0  0  0  0  0  0  0  0
  -19.1196   -7.5682    0.0000 H   0  0  0  0  0  0  0  0  0  0  0  0
  -17.4950   -8.3063    0.0000 H   0  0  0  0  0  0  0  0  0  0  0  0
  -21.6952   -9.6527    0.0000 H   0  0  0  0  0  0  0  0  0  0  0  0
  -20.1726  -10.5833    0.0000 H   0  0  0  0  0  0  0  0  0  0  0  0
  -20.2425   -6.5883    0.0000 H   0  0  0  0  0  0  0  0  0  0  0  0
  -24.8958   -6.6551    0.0000 H   0  0  0  0  0  0  0  0  0  0  0  0
  -24.8021   -9.2514    0.0000 H   0  0  0  0  0  0  0  0  0  0  0  0
  -22.5068  -10.4685    0.0000 H   0  0  0  0  0  0  0  0  0  0  0  0
  -15.7416  -14.1455    0.0000 H   0  0  0  0  0  0  0  0  0  0  0  0
  1  2  1  0
  2  3  1  0
  3  4  2  0
  4  5  1  0
  5  6  2  0
  6  7  1  0
  7  8  2  0
  7  9  1  0
  9 10  1  0
 10 11  1  0
 11 12  2  0
  9 13  1  0
 13 14  1  0
 14 15  2  0
 15 16  1  0
 16 17  2  0
 17 18  1  0
 16 19  1  0
 14 20  1  0
 20 21  1  0
 21 22  2  0
 22 23  1  0
 23 24  2  0
 24 25  1  0
 25 26  2  0
 25 27  1  0
  1 28  2  0
  1 29  1  0
 29 30  1  0
 30 31  1  0
 31 32  1  0
 32 33  2  0
 32 34  1  0
 34 35  1  0
 35 36  1  0
 36 37  1  0
 37 38  1  0
 38 39  1  0
 39 40  1  0
 40 41  2  3
 40 42  1  0
 35 43  1  0
 43 44  2  0
 43 45  1  0
 45 46  1  0
 46 47  1  0
 47 48  1  0
 48 49  1  0
 49 50  1  0
 50 51  1  0
 51 52  2  3
 51 53  1  0
 46 54  1  0
 54 55  2  0
 54 56  1  0
 56 57  1  0
 57 58  1  0
 58 59  1  0
 59 60  1  0
 60 61  1  0
 61 62  1  0
 62 63  2  3
 62 64  1  0
 57 65  1  0
 65 66  2  0
 65 67  1  0
 67 68  1  0
 68 69  1  0
 69 70  1  0
 70 71  1  0
 71 72  1  0
 72 73  1  0
 73 74  2  3
 73 75  1  0
 68 76  1  0
 76 77  2  0
 76 78  1  0
 79 78  1  6
 79 80  1  0
 80 81  1  0
 81 82  1  0
 82 83  1  0
 83 84  1  0
 84 85  1  0
 85 86  1  0
 79 87  1  0
 79 88  1  0
 88 89  2  0
 88 90  1  0
 90 91  1  0
 91 92  1  0
 92 93  1  0
 93 94  1  0
 94 95  1  0
 95 96  1  0
 96 97  2  3
 96 98  1  0
 91 99  1  0
 99100  2  0
 99101  1  0
101102  1  0
102103  1  0
103104  1  0
104105  1  0
105106  1  0
105107  2  0
102108  1  0
108109  2  0
108110  1  0
110111  1  0
111112  1  0
112113  1  0
113114  1  0
114115  1  0
115116  1  0
116117  2  3
116118  1  0
111119  1  0
119120  2  0
119121  1  0
121122  1  0
122123  1  0
123124  1  0
124125  1  0
125126  1  0
126127  1  0
127128  2  3
127129  1  0
122130  1  0
130131  2  0
130132  1  0
132133  1  0
133134  1  0
134135  1  0
135136  1  0
136137  1  0
137138  1  0
138139  2  3
138140  1  0
133141  1  0
141142  2  0
141143  1  0
143144  1  0
144145  1  0
145146  1  0
146147  1  0
147148  1  0
148149  1  0
149150  2  3
149151  1  0
144152  1  0
152153  2  0
152154  1  0
154155  1  0
155156  1  0
156157  1  0
157158  1  0
158159  1  0
155160  1  0
155161  1  1
161162  2  0
161163  1  0
163164  1  0
164165  1  0
165166  1  0
166167  1  0
167168  1  0
168169  1  0
169170  2  3
169171  1  0
164172  1  0
172173  2  0
172174  1  0
174175  1  0
175176  1  0
176177  1  0
177178  1  0
178179  1  0
179180  1  0
180181  2  3
180182  1  0
175183  1  0
183184  2  0
183185  1  0
  8  3  1  0
 11  6  1  0
 86159  2  0
 18 13  2  0
 22  9  1  0
 26 21  1  0
  2186  1  0
  4187  1  0
  5188  1  0
  8189  1  0
 15190  1  0
 17191  1  0
 18192  1  0
 19193  1  0
 23194  1  0
 24195  1  0
 26196  1  0
 27197  1  0
 29198  1  0
 30199  1  0
 30200  1  0
 31201  1  0
 31202  1  0
 34203  1  0
 35204  1  1
 36205  1  0
 36206  1  0
 37207  1  0
 37208  1  0
 38209  1  0
 38210  1  0
 39211  1  0
 41212  1  0
 42213  1  0
 42214  1  0
 45215  1  0
 46216  1  1
 47217  1  0
 47218  1  0
 48219  1  0
 48220  1  0
 49221  1  0
 49222  1  0
 50223  1  0
 52224  1  0
 53225  1  0
 53226  1  0
 56227  1  0
 57228  1  1
 58229  1  0
 58230  1  0
 59231  1  0
 59232  1  0
 60233  1  0
 60234  1  0
 61235  1  0
 63236  1  0
 64237  1  0
 64238  1  0
 67239  1  0
 68240  1  1
 69241  1  0
 69242  1  0
 70243  1  0
 70244  1  0
 71245  1  0
 71246  1  0
 72247  1  0
 74248  1  0
 75249  1  0
 75250  1  0
 78251  1  0
 80252  1  0
 80253  1  0
 81254  1  0
 81255  1  0
 82256  1  0
 82257  1  0
 83258  1  0
 83259  1  0
 84260  1  0
 84261  1  0
 85262  1  0
 85263  1  0
 86264  1  0
 87265  1  0
 87266  1  0
 87267  1  0
 90268  1  0
 91269  1  6
 92270  1  0
 92271  1  0
 93272  1  0
 93273  1  0
 94274  1  0
 94275  1  0
 95276  1  0
 97277  1  0
 98278  1  0
 98279  1  0
101280  1  0
102281  1  6
103282  1  0
103283  1  0
104284  1  0
104285  1  0
106286  1  0
106287  1  0
110288  1  0
111289  1  6
112290  1  0
112291  1  0
113292  1  0
113293  1  0
114294  1  0
114295  1  0
115296  1  0
117297  1  0
118298  1  0
118299  1  0
121300  1  0
122301  1  6
123302  1  0
123303  1  0
124304  1  0
124305  1  0
125306  1  0
125307  1  0
126308  1  0
128309  1  0
129310  1  0
129311  1  0
132312  1  0
133313  1  6
134314  1  0
134315  1  0
135316  1  0
135317  1  0
136318  1  0
136319  1  0
137320  1  0
139321  1  0
140322  1  0
140323  1  0
143324  1  0
144325  1  6
145326  1  0
145327  1  0
146328  1  0
146329  1  0
147330  1  0
147331  1  0
148332  1  0
150333  1  0
151334  1  0
151335  1  0
154336  1  0
156337  1  0
156338  1  0
157339  1  0
157340  1  0
158341  1  0
158342  1  0
159343  1  0
160344  1  0
160345  1  0
160346  1  0
163347  1  0
164348  1  1
165349  1  0
165350  1  0
166351  1  0
166352  1  0
167353  1  0
167354  1  0
168355  1  0
170356  1  0
171357  1  0
171358  1  0
174359  1  0
175360  1  6
176361  1  0
176362  1  0
177363  1  0
177364  1  0
178365  1  0
178366  1  0
179367  1  0
181368  1  0
182369  1  0
182370  1  0
185371  1  0
M  END
