
     RDKit          2D

376377  0  0  0  0  0  0  0  0999 V2000
  -33.3313    9.7795    0.0000 N   0  0  0  0  0  0  0  0  0  0  0  0
  -32.2226    8.7691    0.0000 C   0  0  0  0  0  0  0  0  0  0  0  0
  -32.5433    7.3038    0.0000 C   0  0  0  0  0  0  0  0  0  0  0  0
  -31.4346    6.2934    0.0000 C   0  0  0  0  0  0  0  0  0  0  0  0
  -30.0052    6.7484    0.0000 O   0  0  0  0  0  0  0  0  0  0  0  0
  -31.7552    4.8281    0.0000 N   0  0  0  0  0  0  0  0  0  0  0  0
  -30.6465    3.8178    0.0000 C   0  0  0  0  0  0  0  0  0  0  0  0
  -31.8341    2.9014    0.0000 C   0  0  0  0  0  0  0  0  0  0  0  0
  -33.2806    3.2982    0.0000 O   0  0  0  0  0  0  0  0  0  0  0  0
  -29.2591    3.2475    0.0000 C   0  0  0  0  0  0  0  0  0  0  0  0
  -29.0593    1.7609    0.0000 O   0  0  0  0  0  0  0  0  0  0  0  0
  -28.0716    4.1639    0.0000 N   0  0  0  0  0  0  0  0  0  0  0  0
  -26.6842    3.5937    0.0000 C   0  0  0  0  0  0  0  0  0  0  0  0
  -26.3636    5.0590    0.0000 C   0  0  0  0  0  0  0  0  0  0  0  0
  -25.5611    6.3263    0.0000 O   0  0  0  0  0  0  0  0  0  0  0  0
  -27.4723    6.0694    0.0000 C   0  0  0  0  0  0  0  0  0  0  0  0
  -25.5755    2.5834    0.0000 C   0  0  0  0  0  0  0  0  0  0  0  0
  -24.2123    3.2092    0.0000 O   0  0  0  0  0  0  0  0  0  0  0  0
  -25.8962    1.1180    0.0000 N   0  0  0  0  0  0  0  0  0  0  0  0
  -24.7875    0.1077    0.0000 C   0  0  0  0  0  0  0  0  0  0  0  0
  -23.9850    1.3750    0.0000 C   0  0  0  0  0  0  0  0  0  0  0  0
  -24.0912   -1.2209    0.0000 C   0  0  0  0  0  0  0  0  0  0  0  0
  -22.5925   -1.2823    0.0000 O   0  0  0  0  0  0  0  0  0  0  0  0
  -24.8937   -2.4882    0.0000 N   0  0  0  0  0  0  0  0  0  0  0  0
  -24.1974   -3.8168    0.0000 C   0  0  0  0  0  0  0  0  0  0  0  0
  -25.6268   -4.2718    0.0000 C   0  0  0  0  0  0  0  0  0  0  0  0
  -26.7355   -3.2615    0.0000 C   0  0  0  0  0  0  0  0  0  0  0  0
  -28.1648   -3.7164    0.0000 C   0  0  0  0  0  0  0  0  0  0  0  0
  -27.4317   -1.9329    0.0000 C   0  0  0  0  0  0  0  0  0  0  0  0
  -23.0888   -4.8272    0.0000 C   0  0  0  0  0  0  0  0  0  0  0  0
  -23.5856   -6.2425    0.0000 O   0  0  0  0  0  0  0  0  0  0  0  0
  -21.6594   -4.3722    0.0000 N   0  0  0  0  0  0  0  0  0  0  0  0
  -20.5507   -5.3826    0.0000 C   0  0  0  0  0  0  0  0  0  0  0  0
  -21.7383   -6.2990    0.0000 C   0  0  0  0  0  0  0  0  0  0  0  0
  -21.5384   -7.7856    0.0000 C   0  0  0  0  0  0  0  0  0  0  0  0
  -22.7259   -8.7020    0.0000 C   0  0  0  0  0  0  0  0  0  0  0  0
  -22.5260  -10.1886    0.0000 N   0  0  0  0  0  0  0  0  0  0  0  0
  -23.7136  -11.1050    0.0000 C   0  0  0  0  0  0  0  0  0  0  0  0
  -23.5137  -12.5916    0.0000 N   0  0  0  0  0  0  0  0  0  0  0  0
  -25.1010  -10.5348    0.0000 N   0  0  0  0  0  0  0  0  0  0  0  0
  -19.1633   -5.9528    0.0000 C   0  0  0  0  0  0  0  0  0  0  0  0
  -19.1462   -7.4527    0.0000 O   0  0  0  0  0  0  0  0  0  0  0  0
  -17.9758   -5.0364    0.0000 N   0  0  0  0  0  0  0  0  0  0  0  0
  -16.5884   -5.6066    0.0000 C   0  0  0  0  0  0  0  0  0  0  0  0
  -17.3909   -6.8739    0.0000 C   0  0  0  0  0  0  0  0  0  0  0  0
  -16.6946   -8.2025    0.0000 C   0  0  0  0  0  0  0  0  0  0  0  0
  -17.4971   -9.4698    0.0000 C   0  0  0  0  0  0  0  0  0  0  0  0
  -16.8009  -10.7984    0.0000 O   0  0  0  0  0  0  0  0  0  0  0  0
  -18.9959   -9.4085    0.0000 O   0  0  0  0  0  0  0  0  0  0  0  0
  -15.0897   -5.6679    0.0000 C   0  0  0  0  0  0  0  0  0  0  0  0
  -14.5606   -7.0715    0.0000 O   0  0  0  0  0  0  0  0  0  0  0  0
  -14.2872   -4.4006    0.0000 N   0  0  0  0  0  0  0  0  0  0  0  0
  -12.7885   -4.4620    0.0000 C   0  0  0  0  0  0  0  0  0  0  0  0
  -13.1091   -5.9273    0.0000 C   0  0  0  0  0  0  0  0  0  0  0  0
  -12.0004   -6.9376    0.0000 C   0  0  0  0  0  0  0  0  0  0  0  0
  -12.3211   -8.4030    0.0000 C   0  0  0  0  0  0  0  0  0  0  0  0
  -10.6130   -7.5079    0.0000 C   0  0  0  0  0  0  0  0  0  0  0  0
  -11.3591   -4.0070    0.0000 C   0  0  0  0  0  0  0  0  0  0  0  0
  -10.2504   -5.0173    0.0000 O   0  0  0  0  0  0  0  0  0  0  0  0
  -11.0385   -2.5417    0.0000 N   0  0  0  0  0  0  0  0  0  0  0  0
   -9.6091   -2.0867    0.0000 C   0  0  0  0  0  0  0  0  0  0  0  0
  -10.3054   -0.7581    0.0000 C   0  0  0  0  0  0  0  0  0  0  0  0
  -11.8005   -0.8799    0.0000 C   0  0  0  0  0  0  0  0  0  0  0  0
  -10.5053    0.7286    0.0000 C   0  0  0  0  0  0  0  0  0  0  0  0
  -11.8927    1.2988    0.0000 C   0  0  0  0  0  0  0  0  0  0  0  0
   -8.1104   -2.1480    0.0000 C   0  0  0  0  0  0  0  0  0  0  0  0
   -7.5813   -3.5516    0.0000 O   0  0  0  0  0  0  0  0  0  0  0  0
   -7.3079   -0.8807    0.0000 N   0  0  0  0  0  0  0  0  0  0  0  0
   -5.8092   -0.9420    0.0000 C   0  0  0  0  0  0  0  0  0  0  0  0
   -4.8635   -2.1063    0.0000 C   0  0  0  0  0  0  0  0  0  0  0  0
   -3.6166   -2.9402    0.0000 C   0  0  0  0  0  0  0  0  0  0  0  0
   -2.1793   -3.3694    0.0000 C   0  0  0  0  0  0  0  0  0  0  0  0
   -0.6794   -3.3559    0.0000 C   0  0  0  0  0  0  0  0  0  0  0  0
   -6.6399   -2.1910    0.0000 C   0  0  0  0  0  0  0  0  0  0  0  0
   -6.3697    0.4493    0.0000 C   0  0  0  0  0  0  0  0  0  0  0  0
   -7.8604    0.2829    0.0000 O   0  0  0  0  0  0  0  0  0  0  0  0
   -6.4952    1.9440    0.0000 N   0  0  0  0  0  0  0  0  0  0  0  0
   -6.1746    3.4094    0.0000 C   0  0  0  0  0  0  0  0  0  0  0  0
   -7.6421    3.0990    0.0000 C   0  0  0  0  0  0  0  0  0  0  0  0
   -8.6447    4.2147    0.0000 C   0  0  0  0  0  0  0  0  0  0  0  0
  -10.1122    3.9043    0.0000 C   0  0  0  0  0  0  0  0  0  0  0  0
  -11.1148    5.0200    0.0000 O   0  0  0  0  0  0  0  0  0  0  0  0
  -10.3999    2.4321    0.0000 O   0  0  0  0  0  0  0  0  0  0  0  0
   -5.4363    4.7151    0.0000 C   0  0  0  0  0  0  0  0  0  0  0  0
   -6.6173    5.6398    0.0000 O   0  0  0  0  0  0  0  0  0  0  0  0
   -4.3459    5.7452    0.0000 N   0  0  0  0  0  0  0  0  0  0  0  0
   -3.0003    6.4081    0.0000 C   0  0  0  0  0  0  0  0  0  0  0  0
   -4.1580    7.3619    0.0000 C   0  0  0  0  0  0  0  0  0  0  0  0
   -3.9108    8.8414    0.0000 C   0  0  0  0  0  0  0  0  0  0  0  0
   -5.0685    9.7953    0.0000 C   0  0  0  0  0  0  0  0  0  0  0  0
   -3.1725   10.1471    0.0000 C   0  0  0  0  0  0  0  0  0  0  0  0
   -1.5191    6.6450    0.0000 C   0  0  0  0  0  0  0  0  0  0  0  0
   -1.5326    8.1449    0.0000 O   0  0  0  0  0  0  0  0  0  0  0  0
   -0.0339    6.4347    0.0000 N   0  0  0  0  0  0  0  0  0  0  0  0
    1.3233    5.7961    0.0000 C   0  0  0  0  0  0  0  0  0  0  0  0
    1.3472    7.2959    0.0000 C   0  0  0  0  0  0  0  0  0  0  0  0
    2.6581    8.0250    0.0000 C   0  0  0  0  0  0  0  0  0  0  0  0
    2.4320    4.7857    0.0000 C   0  0  0  0  0  0  0  0  0  0  0  0
    3.5963    5.7314    0.0000 O   0  0  0  0  0  0  0  0  0  0  0  0
    3.1936    3.4935    0.0000 N   0  0  0  0  0  0  0  0  0  0  0  0
    3.5405    2.0341    0.0000 C   0  0  0  0  0  0  0  0  0  0  0  0
    3.4418    0.5374    0.0000 C   0  0  0  0  0  0  0  0  0  0  0  0
    2.9064   -0.8638    0.0000 C   0  0  0  0  0  0  0  0  0  0  0  0
    1.9817   -2.0449    0.0000 C   0  0  0  0  0  0  0  0  0  0  0  0
    0.7500   -2.9010    0.0000 C   0  0  0  0  0  0  0  0  0  0  0  0
    4.9403    1.4952    0.0000 C   0  0  0  0  0  0  0  0  0  0  0  0
    4.7280    2.9505    0.0000 C   0  0  0  0  0  0  0  0  0  0  0  0
    4.7109    4.4504    0.0000 O   0  0  0  0  0  0  0  0  0  0  0  0
    6.1154    2.3803    0.0000 N   0  0  0  0  0  0  0  0  0  0  0  0
    7.3029    3.2967    0.0000 C   0  0  0  0  0  0  0  0  0  0  0  0
    8.1054    4.5640    0.0000 C   0  0  0  0  0  0  0  0  0  0  0  0
    9.6005    4.6858    0.0000 C   0  0  0  0  0  0  0  0  0  0  0  0
    8.4261    6.0293    0.0000 C   0  0  0  0  0  0  0  0  0  0  0  0
    7.3174    7.0397    0.0000 C   0  0  0  0  0  0  0  0  0  0  0  0
    8.6903    2.7265    0.0000 C   0  0  0  0  0  0  0  0  0  0  0  0
    8.8902    1.2398    0.0000 O   0  0  0  0  0  0  0  0  0  0  0  0
    9.8778    3.6429    0.0000 N   0  0  0  0  0  0  0  0  0  0  0  0
   11.2652    3.0726    0.0000 C   0  0  0  0  0  0  0  0  0  0  0  0
   12.3739    2.0623    0.0000 C   0  0  0  0  0  0  0  0  0  0  0  0
   13.6815    1.3272    0.0000 O   0  0  0  0  0  0  0  0  0  0  0  0
   12.0533    0.5970    0.0000 C   0  0  0  0  0  0  0  0  0  0  0  0
   12.4528    3.9890    0.0000 C   0  0  0  0  0  0  0  0  0  0  0  0
   12.2529    5.4757    0.0000 O   0  0  0  0  0  0  0  0  0  0  0  0
   13.8401    3.4188    0.0000 N   0  0  0  0  0  0  0  0  0  0  0  0
   15.0277    4.3352    0.0000 C   0  0  0  0  0  0  0  0  0  0  0  0
   15.8301    5.6025    0.0000 C   0  0  0  0  0  0  0  0  0  0  0  0
   17.3289    5.5412    0.0000 C   0  0  0  0  0  0  0  0  0  0  0  0
   18.1314    6.8085    0.0000 C   0  0  0  0  0  0  0  0  0  0  0  0
   19.6301    6.7472    0.0000 N   0  0  0  0  0  0  0  0  0  0  0  0
   17.4351    8.1371    0.0000 O   0  0  0  0  0  0  0  0  0  0  0  0
   16.4151    3.7650    0.0000 C   0  0  0  0  0  0  0  0  0  0  0  0
   16.6149    2.2784    0.0000 O   0  0  0  0  0  0  0  0  0  0  0  0
   17.6026    4.6814    0.0000 N   0  0  0  0  0  0  0  0  0  0  0  0
   18.9900    4.1112    0.0000 C   0  0  0  0  0  0  0  0  0  0  0  0
   20.4887    4.0499    0.0000 C   0  0  0  0  0  0  0  0  0  0  0  0
   21.2912    5.3171    0.0000 C   0  0  0  0  0  0  0  0  0  0  0  0
   22.7899    5.2558    0.0000 N   0  0  0  0  0  0  0  0  0  0  0  0
   20.5949    6.6458    0.0000 O   0  0  0  0  0  0  0  0  0  0  0  0
   19.1898    2.6245    0.0000 C   0  0  0  0  0  0  0  0  0  0  0  0
   18.0023    1.7081    0.0000 O   0  0  0  0  0  0  0  0  0  0  0  0
   20.5772    2.0543    0.0000 N   0  0  0  0  0  0  0  0  0  0  0  0
   20.7771    0.5677    0.0000 C   0  0  0  0  0  0  0  0  0  0  0  0
   20.4564   -0.8976    0.0000 C   0  0  0  0  0  0  0  0  0  0  0  0
   21.5651   -1.9080    0.0000 C   0  0  0  0  0  0  0  0  0  0  0  0
   21.2445   -3.3733    0.0000 C   0  0  0  0  0  0  0  0  0  0  0  0
   22.4681   -4.2410    0.0000 N   0  0  0  0  0  0  0  0  0  0  0  0
   19.8151   -3.8283    0.0000 O   0  0  0  0  0  0  0  0  0  0  0  0
   22.1645   -0.0025    0.0000 C   0  0  0  0  0  0  0  0  0  0  0  0
   23.3520    0.9139    0.0000 O   0  0  0  0  0  0  0  0  0  0  0  0
   22.3643   -1.4892    0.0000 N   0  0  0  0  0  0  0  0  0  0  0  0
   23.7517   -2.0594    0.0000 C   0  0  0  0  0  0  0  0  0  0  0  0
   24.8604   -3.0697    0.0000 C   0  0  0  0  0  0  0  0  0  0  0  0
   24.5398   -4.5351    0.0000 C   0  0  0  0  0  0  0  0  0  0  0  0
   25.6485   -5.5454    0.0000 C   0  0  0  0  0  0  0  0  0  0  0  0
   25.3278   -7.0107    0.0000 C   0  0  0  0  0  0  0  0  0  0  0  0
   26.4365   -8.0211    0.0000 N   0  0  0  0  0  0  0  0  0  0  0  0
   24.9392   -1.1430    0.0000 C   0  0  0  0  0  0  0  0  0  0  0  0
   24.7394    0.3437    0.0000 O   0  0  0  0  0  0  0  0  0  0  0  0
   26.3266   -1.7132    0.0000 N   0  0  0  0  0  0  0  0  0  0  0  0
   27.5142   -0.7968    0.0000 C   0  0  0  0  0  0  0  0  0  0  0  0
   28.1562    0.5589    0.0000 C   0  0  0  0  0  0  0  0  0  0  0  0
   28.9015   -1.3670    0.0000 C   0  0  0  0  0  0  0  0  0  0  0  0
   29.1014   -2.8536    0.0000 O   0  0  0  0  0  0  0  0  0  0  0  0
   30.0891   -0.4506    0.0000 N   0  0  0  0  0  0  0  0  0  0  0  0
   30.0457    1.0488    0.0000 C   0  0  0  0  0  0  0  0  0  0  0  0
   31.4583    1.5533    0.0000 C   0  0  0  0  0  0  0  0  0  0  0  0
   32.3747    0.3658    0.0000 C   0  0  0  0  0  0  0  0  0  0  0  0
   31.5285   -0.8727    0.0000 C   0  0  0  0  0  0  0  0  0  0  0  0
   32.8486   -1.5848    0.0000 C   0  0  0  0  0  0  0  0  0  0  0  0
   34.2119   -0.9591    0.0000 O   0  0  0  0  0  0  0  0  0  0  0  0
   32.8920   -3.0842    0.0000 N   0  0  0  0  0  0  0  0  0  0  0  0
   34.2122   -3.7963    0.0000 C   0  0  0  0  0  0  0  0  0  0  0  0
   35.6963   -4.0140    0.0000 C   0  0  0  0  0  0  0  0  0  0  0  0
   36.2499   -5.4081    0.0000 C   0  0  0  0  0  0  0  0  0  0  0  0
   37.7340   -5.6257    0.0000 C   0  0  0  0  0  0  0  0  0  0  0  0
   36.2933   -6.9075    0.0000 C   0  0  0  0  0  0  0  0  0  0  0  0
   34.2556   -5.2957    0.0000 C   0  0  0  0  0  0  0  0  0  0  0  0
   35.4791   -6.1634    0.0000 O   0  0  0  0  0  0  0  0  0  0  0  0
   32.9788   -6.0829    0.0000 O   0  0  0  0  0  0  0  0  0  0  0  0
  -33.0107   11.2448    0.0000 H   0  0  0  0  0  0  0  0  0  0  0  0
  -34.7606    9.3245    0.0000 H   0  0  0  0  0  0  0  0  0  0  0  0
  -31.4201   10.0364    0.0000 H   0  0  0  0  0  0  0  0  0  0  0  0
  -30.8352    8.1989    0.0000 H   0  0  0  0  0  0  0  0  0  0  0  0
  -33.9307    7.8740    0.0000 H   0  0  0  0  0  0  0  0  0  0  0  0
  -33.3457    6.0365    0.0000 H   0  0  0  0  0  0  0  0  0  0  0  0
  -33.2294    4.5507    0.0000 H   0  0  0  0  0  0  0  0  0  0  0  0
  -29.8441    5.0850    0.0000 H   0  0  0  0  0  0  0  0  0  0  0  0
  -32.6365    1.6341    0.0000 H   0  0  0  0  0  0  0  0  0  0  0  0
  -30.7254    1.8910    0.0000 H   0  0  0  0  0  0  0  0  0  0  0  0
  -34.4090    2.5552    0.0000 H   0  0  0  0  0  0  0  0  0  0  0  0
  -28.2733    4.9351    0.0000 H   0  0  0  0  0  0  0  0  0  0  0  0
  -27.4867    2.3264    0.0000 H   0  0  0  0  0  0  0  0  0  0  0  0
  -24.9762    4.4888    0.0000 H   0  0  0  0  0  0  0  0  0  0  0  0
  -24.0624    6.2650    0.0000 H   0  0  0  0  0  0  0  0  0  0  0  0
  -27.1516    7.5347    0.0000 H   0  0  0  0  0  0  0  0  0  0  0  0
  -28.8597    6.6396    0.0000 H   0  0  0  0  0  0  0  0  0  0  0  0
  -28.1829    5.5406    0.0000 H   0  0  0  0  0  0  0  0  0  0  0  0
  -27.3255    0.6630    0.0000 H   0  0  0  0  0  0  0  0  0  0  0  0
  -25.8545   -0.9466    0.0000 H   0  0  0  0  0  0  0  0  0  0  0  0
  -24.5141    2.7785    0.0000 H   0  0  0  0  0  0  0  0  0  0  0  0
  -22.7975    2.2914    0.0000 H   0  0  0  0  0  0  0  0  0  0  0  0
  -22.8763    0.3646    0.0000 H   0  0  0  0  0  0  0  0  0  0  0  0
  -26.3738   -2.2447    0.0000 H   0  0  0  0  0  0  0  0  0  0  0  0
  -23.0099   -2.9004    0.0000 H   0  0  0  0  0  0  0  0  0  0  0  0
  -26.6937   -5.3261    0.0000 H   0  0  0  0  0  0  0  0  0  0  0  0
  -24.9305   -5.6004    0.0000 H   0  0  0  0  0  0  0  0  0  0  0  0
  -25.9553   -1.9803    0.0000 H   0  0  0  0  0  0  0  0  0  0  0  0
  -29.3884   -2.8488    0.0000 H   0  0  0  0  0  0  0  0  0  0  0  0
  -29.3523   -4.6328    0.0000 H   0  0  0  0  0  0  0  0  0  0  0  0
  -27.6357   -5.1200    0.0000 H   0  0  0  0  0  0  0  0  0  0  0  0
  -28.9118   -1.6893    0.0000 H   0  0  0  0  0  0  0  0  0  0  0  0
  -27.6316   -0.4462    0.0000 H   0  0  0  0  0  0  0  0  0  0  0  0
  -25.9576   -1.6555    0.0000 H   0  0  0  0  0  0  0  0  0  0  0  0
  -21.3388   -2.9069    0.0000 H   0  0  0  0  0  0  0  0  0  0  0  0
  -19.7482   -4.1153    0.0000 H   0  0  0  0  0  0  0  0  0  0  0  0
  -23.1676   -6.7539    0.0000 H   0  0  0  0  0  0  0  0  0  0  0  0
  -22.7353   -5.1783    0.0000 H   0  0  0  0  0  0  0  0  0  0  0  0
  -20.8421   -9.1142    0.0000 H   0  0  0  0  0  0  0  0  0  0  0  0
  -20.1091   -7.3306    0.0000 H   0  0  0  0  0  0  0  0  0  0  0  0
  -24.1552   -9.1570    0.0000 H   0  0  0  0  0  0  0  0  0  0  0  0
  -23.5789   -7.4682    0.0000 H   0  0  0  0  0  0  0  0  0  0  0  0
  -21.1387  -10.7588    0.0000 H   0  0  0  0  0  0  0  0  0  0  0  0
  -24.7012  -13.5080    0.0000 H   0  0  0  0  0  0  0  0  0  0  0  0
  -22.1263  -13.1619    0.0000 H   0  0  0  0  0  0  0  0  0  0  0  0
  -26.2885  -11.4512    0.0000 H   0  0  0  0  0  0  0  0  0  0  0  0
  -25.3008   -9.0482    0.0000 H   0  0  0  0  0  0  0  0  0  0  0  0
  -18.1757   -3.5498    0.0000 H   0  0  0  0  0  0  0  0  0  0  0  0
  -16.2678   -4.1413    0.0000 H   0  0  0  0  0  0  0  0  0  0  0  0
  -18.4579   -7.9282    0.0000 H   0  0  0  0  0  0  0  0  0  0  0  0
  -18.7111   -6.1619    0.0000 H   0  0  0  0  0  0  0  0  0  0  0  0
  -15.5860   -9.2129    0.0000 H   0  0  0  0  0  0  0  0  0  0  0  0
  -15.5071   -7.2861    0.0000 H   0  0  0  0  0  0  0  0  0  0  0  0
  -14.9835   -3.0720    0.0000 H   0  0  0  0  0  0  0  0  0  0  0  0
  -12.9883   -2.9753    0.0000 H   0  0  0  0  0  0  0  0  0  0  0  0
  -13.9116   -7.1946    0.0000 H   0  0  0  0  0  0  0  0  0  0  0  0
  -14.5932   -5.7097    0.0000 H   0  0  0  0  0  0  0  0  0  0  0  0
  -11.1979   -5.6703    0.0000 H   0  0  0  0  0  0  0  0  0  0  0  0
  -11.3438   -9.5409    0.0000 H   0  0  0  0  0  0  0  0  0  0  0  0
  -13.1235   -9.6703    0.0000 H   0  0  0  0  0  0  0  0  0  0  0  0
  -13.7676   -8.0061    0.0000 H   0  0  0  0  0  0  0  0  0  0  0  0
  -10.2334   -8.9590    0.0000 H   0  0  0  0  0  0  0  0  0  0  0  0
   -9.1143   -7.5692    0.0000 H   0  0  0  0  0  0  0  0  0  0  0  0
  -10.2924   -6.0425    0.0000 H   0  0  0  0  0  0  0  0  0  0  0  0
  -12.2621   -1.6740    0.0000 H   0  0  0  0  0  0  0  0  0  0  0  0
   -9.4093   -3.5733    0.0000 H   0  0  0  0  0  0  0  0  0  0  0  0
   -8.8761   -0.3031    0.0000 H   0  0  0  0  0  0  0  0  0  0  0  0
  -12.6795    0.5353    0.0000 H   0  0  0  0  0  0  0  0  0  0  0  0
  -13.2335   -1.1517    0.0000 H   0  0  0  0  0  0  0  0  0  0  0  0
  -12.1504   -2.1562    0.0000 H   0  0  0  0  0  0  0  0  0  0  0  0
  -10.0084    2.1439    0.0000 H   0  0  0  0  0  0  0  0  0  0  0  0
   -9.0065    0.6672    0.0000 H   0  0  0  0  0  0  0  0  0  0  0  0
  -12.0925    2.7854    0.0000 H   0  0  0  0  0  0  0  0  0  0  0  0
  -13.3914    1.3601    0.0000 H   0  0  0  0  0  0  0  0  0  0  0  0
  -12.5584   -0.0454    0.0000 H   0  0  0  0  0  0  0  0  0  0  0  0
   -8.1610    0.3531    0.0000 H   0  0  0  0  0  0  0  0  0  0  0  0
   -5.1107   -3.5858    0.0000 H   0  0  0  0  0  0  0  0  0  0  0  0
   -6.2562   -2.6634    0.0000 H   0  0  0  0  0  0  0  0  0  0  0  0
   -3.5994   -4.4401    0.0000 H   0  0  0  0  0  0  0  0  0  0  0  0
   -4.7832   -3.8830    0.0000 H   0  0  0  0  0  0  0  0  0  0  0  0
   -1.5501   -4.7311    0.0000 H   0  0  0  0  0  0  0  0  0  0  0  0
   -3.0162   -4.6142    0.0000 H   0  0  0  0  0  0  0  0  0  0  0  0
   -0.4425   -4.8371    0.0000 H   0  0  0  0  0  0  0  0  0  0  0  0
   -7.8955   -2.6898    0.0000 H   0  0  0  0  0  0  0  0  0  0  0  0
   -6.4617   -3.7629    0.0000 H   0  0  0  0  0  0  0  0  0  0  0  0
   -5.3371   -3.2495    0.0000 H   0  0  0  0  0  0  0  0  0  0  0  0
   -7.9920    2.0427    0.0000 H   0  0  0  0  0  0  0  0  0  0  0  0
   -6.9070    4.7184    0.0000 H   0  0  0  0  0  0  0  0  0  0  0  0
   -8.9150    2.3054    0.0000 H   0  0  0  0  0  0  0  0  0  0  0  0
   -7.4349    1.6134    0.0000 H   0  0  0  0  0  0  0  0  0  0  0  0
   -9.2052    5.6060    0.0000 H   0  0  0  0  0  0  0  0  0  0  0  0
   -7.4780    5.1575    0.0000 H   0  0  0  0  0  0  0  0  0  0  0  0
   -5.2019    6.9769    0.0000 H   0  0  0  0  0  0  0  0  0  0  0  0
   -2.4335    7.7969    0.0000 H   0  0  0  0  0  0  0  0  0  0  0  0
   -5.6225    7.6862    0.0000 H   0  0  0  0  0  0  0  0  0  0  0  0
   -5.1903    6.2737    0.0000 H   0  0  0  0  0  0  0  0  0  0  0  0
   -2.4463    8.5172    0.0000 H   0  0  0  0  0  0  0  0  0  0  0  0
   -5.0034   11.2938    0.0000 H   0  0  0  0  0  0  0  0  0  0  0  0
   -6.4825   10.2956    0.0000 H   0  0  0  0  0  0  0  0  0  0  0  0
   -5.9604    8.5893    0.0000 H   0  0  0  0  0  0  0  0  0  0  0  0
   -3.7709   11.5226    0.0000 H   0  0  0  0  0  0  0  0  0  0  0  0
   -2.0321   11.1216    0.0000 H   0  0  0  0  0  0  0  0  0  0  0  0
   -2.0148    9.1933    0.0000 H   0  0  0  0  0  0  0  0  0  0  0  0
    0.3953    7.8720    0.0000 H   0  0  0  0  0  0  0  0  0  0  0  0
    2.7625    6.2188    0.0000 H   0  0  0  0  0  0  0  0  0  0  0  0
    0.8568    8.7134    0.0000 H   0  0  0  0  0  0  0  0  0  0  0  0
   -0.1472    7.4244    0.0000 H   0  0  0  0  0  0  0  0  0  0  0  0
    2.6820    9.5249    0.0000 H   0  0  0  0  0  0  0  0  0  0  0  0
    4.1393    8.2619    0.0000 H   0  0  0  0  0  0  0  0  0  0  0  0
    3.3177    6.6779    0.0000 H   0  0  0  0  0  0  0  0  0  0  0  0
    4.5062    4.2194    0.0000 H   0  0  0  0  0  0  0  0  0  0  0  0
    4.9003    0.8879    0.0000 H   0  0  0  0  0  0  0  0  0  0  0  0
    4.4988   -0.5270    0.0000 H   0  0  0  0  0  0  0  0  0  0  0  0
    4.4034   -0.9588    0.0000 H   0  0  0  0  0  0  0  0  0  0  0  0
    3.7594   -2.0976    0.0000 H   0  0  0  0  0  0  0  0  0  0  0  0
    3.3842   -2.5769    0.0000 H   0  0  0  0  0  0  0  0  0  0  0  0
    2.2554   -3.5197    0.0000 H   0  0  0  0  0  0  0  0  0  0  0  0
    1.4129   -4.2465    0.0000 H   0  0  0  0  0  0  0  0  0  0  0  0
    6.2532    1.8140    0.0000 H   0  0  0  0  0  0  0  0  0  0  0  0
    5.7036    0.1095    0.0000 H   0  0  0  0  0  0  0  0  0  0  0  0
    4.4891   -0.1217    0.0000 H   0  0  0  0  0  0  0  0  0  0  0  0
    6.4950    0.9291    0.0000 H   0  0  0  0  0  0  0  0  0  0  0  0
    6.1942    4.3070    0.0000 H   0  0  0  0  0  0  0  0  0  0  0  0
    6.6589    4.9608    0.0000 H   0  0  0  0  0  0  0  0  0  0  0  0
   10.5551    5.6627    0.0000 H   0  0  0  0  0  0  0  0  0  0  0  0
   10.9915    3.9324    0.0000 H   0  0  0  0  0  0  0  0  0  0  0  0
   10.0091    3.0584    0.0000 H   0  0  0  0  0  0  0  0  0  0  0  0
    9.2285    7.2966    0.0000 H   0  0  0  0  0  0  0  0  0  0  0  0
    9.9102    5.8117    0.0000 H   0  0  0  0  0  0  0  0  0  0  0  0
    7.6380    8.5050    0.0000 H   0  0  0  0  0  0  0  0  0  0  0  0
    5.9300    7.6099    0.0000 H   0  0  0  0  0  0  0  0  0  0  0  0
    6.3664    5.8796    0.0000 H   0  0  0  0  0  0  0  0  0  0  0  0
   10.0436    5.1337    0.0000 H   0  0  0  0  0  0  0  0  0  0  0  0
   10.3143    1.9126    0.0000 H   0  0  0  0  0  0  0  0  0  0  0  0
   13.4592    3.0977    0.0000 H   0  0  0  0  0  0  0  0  0  0  0  0
   14.1409    0.0409    0.0000 H   0  0  0  0  0  0  0  0  0  0  0  0
   13.0305   -0.5410    0.0000 H   0  0  0  0  0  0  0  0  0  0  0  0
   11.2508   -0.6703    0.0000 H   0  0  0  0  0  0  0  0  0  0  0  0
   10.6067    0.9938    0.0000 H   0  0  0  0  0  0  0  0  0  0  0  0
   14.2197    1.9676    0.0000 H   0  0  0  0  0  0  0  0  0  0  0  0
   13.9190    5.3456    0.0000 H   0  0  0  0  0  0  0  0  0  0  0  0
   16.1508    7.0678    0.0000 H   0  0  0  0  0  0  0  0  0  0  0  0
   14.4428    6.1727    0.0000 H   0  0  0  0  0  0  0  0  0  0  0  0
   18.7754    5.1443    0.0000 H   0  0  0  0  0  0  0  0  0  0  0  0
   17.7339    4.0969    0.0000 H   0  0  0  0  0  0  0  0  0  0  0  0
   20.4326    8.0145    0.0000 H   0  0  0  0  0  0  0  0  0  0  0  0
   20.3264    5.4185    0.0000 H   0  0  0  0  0  0  0  0  0  0  0  0
   17.7684    6.1722    0.0000 H   0  0  0  0  0  0  0  0  0  0  0  0
   19.4868    5.5265    0.0000 H   0  0  0  0  0  0  0  0  0  0  0  0
   21.9353    3.6530    0.0000 H   0  0  0  0  0  0  0  0  0  0  0  0
   20.5322    2.5505    0.0000 H   0  0  0  0  0  0  0  0  0  0  0  0
   23.5924    6.5231    0.0000 H   0  0  0  0  0  0  0  0  0  0  0  0
   23.4862    3.9272    0.0000 H   0  0  0  0  0  0  0  0  0  0  0  0
   21.8676    2.8191    0.0000 H   0  0  0  0  0  0  0  0  0  0  0  0
   19.2783    0.6290    0.0000 H   0  0  0  0  0  0  0  0  0  0  0  0
   19.6540   -2.1649    0.0000 H   0  0  0  0  0  0  0  0  0  0  0  0
   19.0690   -0.3274    0.0000 H   0  0  0  0  0  0  0  0  0  0  0  0
   22.8727   -2.6431    0.0000 H   0  0  0  0  0  0  0  0  0  0  0  0
   22.8687   -1.1659    0.0000 H   0  0  0  0  0  0  0  0  0  0  0  0
   22.0325   -5.8490    0.0000 H   0  0  0  0  0  0  0  0  0  0  0  0
   23.7346   -3.7708    0.0000 H   0  0  0  0  0  0  0  0  0  0  0  0
   21.4338   -2.6657    0.0000 H   0  0  0  0  0  0  0  0  0  0  0  0
   22.9492   -3.3267    0.0000 H   0  0  0  0  0  0  0  0  0  0  0  0
   26.2478   -3.6399    0.0000 H   0  0  0  0  0  0  0  0  0  0  0  0
   25.9457   -2.0343    0.0000 H   0  0  0  0  0  0  0  0  0  0  0  0
   23.5888   -5.6951    0.0000 H   0  0  0  0  0  0  0  0  0  0  0  0
   23.2322   -3.8000    0.0000 H   0  0  0  0  0  0  0  0  0  0  0  0
   27.0950   -5.9423    0.0000 H   0  0  0  0  0  0  0  0  0  0  0  0
   26.5994   -4.3854    0.0000 H   0  0  0  0  0  0  0  0  0  0  0  0
   24.5253   -8.2780    0.0000 H   0  0  0  0  0  0  0  0  0  0  0  0
   23.8813   -6.6139    0.0000 H   0  0  0  0  0  0  0  0  0  0  0  0
   26.1159   -9.4864    0.0000 H   0  0  0  0  0  0  0  0  0  0  0  0
   27.8239   -8.5913    0.0000 H   0  0  0  0  0  0  0  0  0  0  0  0
   27.3875   -6.8611    0.0000 H   0  0  0  0  0  0  0  0  0  0  0  0
   26.7062   -3.1644    0.0000 H   0  0  0  0  0  0  0  0  0  0  0  0
   26.4055    0.2136    0.0000 H   0  0  0  0  0  0  0  0  0  0  0  0
   29.6687    1.1201    0.0000 H   0  0  0  0  0  0  0  0  0  0  0  0
   28.6373    1.9358    0.0000 H   0  0  0  0  0  0  0  0  0  0  0  0
   26.9292    1.0407    0.0000 H   0  0  0  0  0  0  0  0  0  0  0  0
   28.5458    1.0316    0.0000 H   0  0  0  0  0  0  0  0  0  0  0  0
   29.6915    2.5063    0.0000 H   0  0  0  0  0  0  0  0  0  0  0  0
   30.8088    2.9054    0.0000 H   0  0  0  0  0  0  0  0  0  0  0  0
   32.7351    2.3406    0.0000 H   0  0  0  0  0  0  0  0  0  0  0  0
   33.4599    1.4013    0.0000 H   0  0  0  0  0  0  0  0  0  0  0  0
   33.6278   -0.4586    0.0000 H   0  0  0  0  0  0  0  0  0  0  0  0
   30.9582   -2.2601    0.0000 H   0  0  0  0  0  0  0  0  0  0  0  0
   31.6152   -3.8714    0.0000 H   0  0  0  0  0  0  0  0  0  0  0  0
   34.6843   -2.3725    0.0000 H   0  0  0  0  0  0  0  0  0  0  0  0
   37.1175   -3.5341    0.0000 H   0  0  0  0  0  0  0  0  0  0  0  0
   35.6529   -2.5146    0.0000 H   0  0  0  0  0  0  0  0  0  0  0  0
   34.9871   -6.2176    0.0000 H   0  0  0  0  0  0  0  0  0  0  0  0
   38.4534   -6.9420    0.0000 H   0  0  0  0  0  0  0  0  0  0  0  0
   39.2031   -5.3226    0.0000 H   0  0  0  0  0  0  0  0  0  0  0  0
   37.8737   -4.1322    0.0000 H   0  0  0  0  0  0  0  0  0  0  0  0
   37.5168   -7.7752    0.0000 H   0  0  0  0  0  0  0  0  0  0  0  0
   35.8212   -8.3312    0.0000 H   0  0  0  0  0  0  0  0  0  0  0  0
   34.8091   -6.6898    0.0000 H   0  0  0  0  0  0  0  0  0  0  0  0
  1  2  1  0
  2  3  1  0
  3  4  1  0
  4  5  2  0
  4  6  1  0
  6  7  1  0
  7  8  1  0
  8  9  1  0
  7 10  1  0
 10 11  2  0
 10 12  1  0
 12 13  1  0
 13 14  1  0
 14 15  1  0
 14 16  1  0
 13 17  1  0
 17 18  2  0
 17 19  1  0
 19 20  1  0
 20 21  1  0
 20 22  1  0
 22 23  2  0
 22 24  1  0
 24 25  1  0
 25 26  1  0
 26 27  1  0
 27 28  1  0
 27 29  1  0
 25 30  1  0
 30 31  2  0
 30 32  1  0
 32 33  1  0
 33 34  1  0
 34 35  1  0
 35 36  1  0
 36 37  1  0
 37 38  1  0
 38 39  2  3
 38 40  1  0
 33 41  1  0
 41 42  2  0
 41 43  1  0
 43 44  1  0
 44 45  1  0
 45 46  1  0
 46 47  1  0
 47 48  2  0
 47 49  1  0
 44 50  1  0
 50 51  2  0
 50 52  1  0
 52 53  1  0
 53 54  1  0
 54 55  1  0
 55 56  1  0
 55 57  1  0
 53 58  1  0
 58 59  2  0
 58 60  1  0
 60 61  1  0
 61 62  1  0
 62 63  1  0
 62 64  1  0
 64 65  1  0
 61 66  1  0
 66 67  2  0
 66 68  1  0
 69 68  1  6
 69 70  1  0
 70 71  1  0
 71 72  1  0
 72 73  1  0
 69 74  1  0
 69 75  1  0
 75 76  2  0
 75 77  1  0
 77 78  1  0
 78 79  1  0
 79 80  1  0
 80 81  1  0
 81 82  2  0
 81 83  1  0
 78 84  1  0
 84 85  2  0
 84 86  1  0
 86 87  1  0
 87 88  1  0
 88 89  1  0
 89 90  1  0
 89 91  1  0
 87 92  1  0
 92 93  2  0
 92 94  1  0
 94 95  1  0
 95 96  1  0
 96 97  1  0
 95 98  1  0
 98 99  2  0
 98100  1  0
100101  1  0
101102  1  0
102103  1  0
103104  1  0
104105  1  0
101106  1  0
101107  1  6
107108  2  0
107109  1  0
109110  1  0
110111  1  0
111112  1  0
111113  1  0
113114  1  0
110115  1  0
115116  2  0
115117  1  0
117118  1  0
118119  1  0
119120  1  0
119121  1  0
118122  1  0
122123  2  0
122124  1  0
124125  1  0
125126  1  0
126127  1  0
127128  1  0
128129  1  0
128130  2  0
125131  1  0
131132  2  0
131133  1  0
133134  1  0
134135  1  0
135136  1  0
136137  1  0
136138  2  0
134139  1  0
139140  2  0
139141  1  0
141142  1  0
142143  1  0
143144  1  0
144145  1  0
145146  1  0
145147  2  0
142148  1  0
148149  2  0
148150  1  0
150151  1  0
151152  1  0
152153  1  0
153154  1  0
154155  1  0
155156  1  0
151157  1  0
157158  2  0
157159  1  0
159160  1  0
160161  1  0
160162  1  0
162163  2  0
162164  1  0
164165  1  0
165166  1  0
166167  1  0
167168  1  0
168169  1  0
169170  2  0
169171  1  0
171172  1  0
172173  1  0
173174  1  0
174175  1  0
174176  1  0
172177  1  0
177178  2  0
177179  1  0
168164  1  0
 73105  2  0
  1180  1  0
  1181  1  0
  2182  1  0
  2183  1  0
  3184  1  0
  3185  1  0
  6186  1  0
  7187  1  6
  8188  1  0
  8189  1  0
  9190  1  0
 12191  1  0
 13192  1  1
 14193  1  6
 15194  1  0
 16195  1  0
 16196  1  0
 16197  1  0
 19198  1  0
 20199  1  1
 21200  1  0
 21201  1  0
 21202  1  0
 24203  1  0
 25204  1  6
 26205  1  0
 26206  1  0
 27207  1  0
 28208  1  0
 28209  1  0
 28210  1  0
 29211  1  0
 29212  1  0
 29213  1  0
 32214  1  0
 33215  1  6
 34216  1  0
 34217  1  0
 35218  1  0
 35219  1  0
 36220  1  0
 36221  1  0
 37222  1  0
 39223  1  0
 39224  1  0
 40225  1  0
 40226  1  0
 43227  1  0
 44228  1  6
 45229  1  0
 45230  1  0
 46231  1  0
 46232  1  0
 52233  1  0
 53234  1  6
 54235  1  0
 54236  1  0
 55237  1  0
 56238  1  0
 56239  1  0
 56240  1  0
 57241  1  0
 57242  1  0
 57243  1  0
 60244  1  0
 61245  1  1
 62246  1  6
 63247  1  0
 63248  1  0
 63249  1  0
 64250  1  0
 64251  1  0
 65252  1  0
 65253  1  0
 65254  1  0
 68255  1  0
 70256  1  0
 70257  1  0
 71258  1  0
 71259  1  0
 72260  1  0
 72261  1  0
 73262  1  0
 74263  1  0
 74264  1  0
 74265  1  0
 77266  1  0
 78267  1  1
 79268  1  0
 79269  1  0
 80270  1  0
 80271  1  0
 86272  1  0
 87273  1  1
 88274  1  0
 88275  1  0
 89276  1  0
 90277  1  0
 90278  1  0
 90279  1  0
 91280  1  0
 91281  1  0
 91282  1  0
 94283  1  0
 95284  1  1
 96285  1  0
 96286  1  0
 97287  1  0
 97288  1  0
 97289  1  0
100290  1  0
102291  1  0
102292  1  0
103293  1  0
103294  1  0
104295  1  0
104296  1  0
105297  1  0
106298  1  0
106299  1  0
106300  1  0
109301  1  0
110302  1  1
111303  1  1
112304  1  0
112305  1  0
112306  1  0
113307  1  0
113308  1  0
114309  1  0
114310  1  0
114311  1  0
117312  1  0
118313  1  6
119314  1  1
120315  1  0
121316  1  0
121317  1  0
121318  1  0
124319  1  0
125320  1  1
126321  1  0
126322  1  0
127323  1  0
127324  1  0
129325  1  0
129326  1  0
133327  1  0
134328  1  1
135329  1  0
135330  1  0
137331  1  0
137332  1  0
141333  1  0
142334  1  6
143335  1  0
143336  1  0
144337  1  0
144338  1  0
146339  1  0
146340  1  0
150341  1  0
151342  1  6
152343  1  0
152344  1  0
153345  1  0
153346  1  0
154347  1  0
154348  1  0
155349  1  0
155350  1  0
156351  1  0
156352  1  0
156353  1  0
159354  1  0
160355  1  1
161356  1  0
161357  1  0
161358  1  0
165359  1  0
165360  1  0
166361  1  0
166362  1  0
167363  1  0
167364  1  0
168365  1  0
171366  1  0
172367  1  1
173368  1  0
173369  1  0
174370  1  0
175371  1  0
175372  1  0
175373  1  0
176374  1  0
176375  1  0
176376  1  0
M  CHG  5  39   1  49  -1  83  -1 156   1 179  -1
M  END
