
     RDKit          2D

314316  0  0  0  0  0  0  0  0999 V2000
  -25.7591   -3.2596    0.0000 N   0  0  0  0  0  0  0  0  0  0  0  0
  -24.2779   -3.0231    0.0000 C   0  0  0  0  0  0  0  0  0  0  0  0
  -23.3325   -4.1876    0.0000 C   0  0  0  0  0  0  0  0  0  0  0  0
  -21.8512   -3.9512    0.0000 C   0  0  0  0  0  0  0  0  0  0  0  0
  -21.3154   -2.5501    0.0000 O   0  0  0  0  0  0  0  0  0  0  0  0
  -20.9058   -5.1157    0.0000 N   0  0  0  0  0  0  0  0  0  0  0  0
  -19.4246   -4.8792    0.0000 C   0  0  0  0  0  0  0  0  0  0  0  0
  -19.4489   -6.3790    0.0000 C   0  0  0  0  0  0  0  0  0  0  0  0
  -20.7599   -7.1079    0.0000 C   0  0  0  0  0  0  0  0  0  0  0  0
  -20.7843   -8.6077    0.0000 C   0  0  0  0  0  0  0  0  0  0  0  0
  -22.0953   -9.3365    0.0000 O   0  0  0  0  0  0  0  0  0  0  0  0
  -19.4976   -9.3786    0.0000 O   0  0  0  0  0  0  0  0  0  0  0  0
  -18.1135   -4.1504    0.0000 C   0  0  0  0  0  0  0  0  0  0  0  0
  -16.9304   -5.0725    0.0000 O   0  0  0  0  0  0  0  0  0  0  0  0
  -18.0892   -2.6506    0.0000 N   0  0  0  0  0  0  0  0  0  0  0  0
  -16.7782   -1.9218    0.0000 C   0  0  0  0  0  0  0  0  0  0  0  0
  -16.2881   -3.3395    0.0000 C   0  0  0  0  0  0  0  0  0  0  0  0
  -14.8153   -3.6239    0.0000 C   0  0  0  0  0  0  0  0  0  0  0  0
  -14.3252   -5.0415    0.0000 C   0  0  0  0  0  0  0  0  0  0  0  0
  -12.8524   -5.3259    0.0000 N   0  0  0  0  0  0  0  0  0  0  0  0
  -12.3623   -6.7436    0.0000 C   0  0  0  0  0  0  0  0  0  0  0  0
  -10.8895   -7.0280    0.0000 N   0  0  0  0  0  0  0  0  0  0  0  0
  -13.3450   -7.8769    0.0000 N   0  0  0  0  0  0  0  0  0  0  0  0
  -15.7955   -0.7885    0.0000 C   0  0  0  0  0  0  0  0  0  0  0  0
  -14.3227   -1.0729    0.0000 O   0  0  0  0  0  0  0  0  0  0  0  0
  -16.2856    0.6292    0.0000 N   0  0  0  0  0  0  0  0  0  0  0  0
  -15.3029    1.7624    0.0000 C   0  0  0  0  0  0  0  0  0  0  0  0
  -16.5896    2.5334    0.0000 C   0  0  0  0  0  0  0  0  0  0  0  0
  -17.9006    1.8046    0.0000 C   0  0  0  0  0  0  0  0  0  0  0  0
  -19.1873    2.5756    0.0000 C   0  0  0  0  0  0  0  0  0  0  0  0
  -18.8833    0.6713    0.0000 C   0  0  0  0  0  0  0  0  0  0  0  0
  -13.9919    2.4913    0.0000 C   0  0  0  0  0  0  0  0  0  0  0  0
  -14.1722    3.2678    0.0000 O   0  0  0  0  0  0  0  0  0  0  0  0
  -12.7052    1.7203    0.0000 N   0  0  0  0  0  0  0  0  0  0  0  0
  -11.3941    2.4491    0.0000 C   0  0  0  0  0  0  0  0  0  0  0  0
  -12.3395    3.6137    0.0000 C   0  0  0  0  0  0  0  0  0  0  0  0
  -13.8208    3.3772    0.0000 C   0  0  0  0  0  0  0  0  0  0  0  0
  -14.7662    4.5418    0.0000 C   0  0  0  0  0  0  0  0  0  0  0  0
  -16.2474    4.3053    0.0000 N   0  0  0  0  0  0  0  0  0  0  0  0
  -17.1929    5.4698    0.0000 C   0  0  0  0  0  0  0  0  0  0  0  0
  -18.6741    5.2334    0.0000 N   0  0  0  0  0  0  0  0  0  0  0  0
  -16.6570    6.8709    0.0000 N   0  0  0  0  0  0  0  0  0  0  0  0
   -9.9129    2.6856    0.0000 C   0  0  0  0  0  0  0  0  0  0  0  0
   -9.7320    4.1747    0.0000 O   0  0  0  0  0  0  0  0  0  0  0  0
   -8.9675    1.5211    0.0000 N   0  0  0  0  0  0  0  0  0  0  0  0
   -7.4862    1.7575    0.0000 C   0  0  0  0  0  0  0  0  0  0  0  0
   -7.9763    3.1752    0.0000 C   0  0  0  0  0  0  0  0  0  0  0  0
   -9.4491    3.4596    0.0000 C   0  0  0  0  0  0  0  0  0  0  0  0
   -9.9392    4.8773    0.0000 C   0  0  0  0  0  0  0  0  0  0  0  0
  -11.4120    5.1617    0.0000 N   0  0  0  0  0  0  0  0  0  0  0  0
  -11.9021    6.5794    0.0000 C   0  0  0  0  0  0  0  0  0  0  0  0
  -13.3749    6.8638    0.0000 N   0  0  0  0  0  0  0  0  0  0  0  0
  -10.9194    7.7126    0.0000 N   0  0  0  0  0  0  0  0  0  0  0  0
   -6.0134    1.4731    0.0000 C   0  0  0  0  0  0  0  0  0  0  0  0
   -5.3342    2.8105    0.0000 O   0  0  0  0  0  0  0  0  0  0  0  0
   -5.5233    0.0555    0.0000 N   0  0  0  0  0  0  0  0  0  0  0  0
   -4.0505   -0.2289    0.0000 C   0  0  0  0  0  0  0  0  0  0  0  0
   -4.0262    1.2709    0.0000 C   0  0  0  0  0  0  0  0  0  0  0  0
   -5.3129    2.0418    0.0000 C   0  0  0  0  0  0  0  0  0  0  0  0
   -5.2886    3.5416    0.0000 C   0  0  0  0  0  0  0  0  0  0  0  0
   -6.5753    4.3126    0.0000 N   0  0  0  0  0  0  0  0  0  0  0  0
   -6.5509    5.8124    0.0000 C   0  0  0  0  0  0  0  0  0  0  0  0
   -7.8376    6.5834    0.0000 N   0  0  0  0  0  0  0  0  0  0  0  0
   -5.2399    6.5412    0.0000 N   0  0  0  0  0  0  0  0  0  0  0  0
   -2.7638   -0.9999    0.0000 C   0  0  0  0  0  0  0  0  0  0  0  0
   -1.4528   -0.2711    0.0000 O   0  0  0  0  0  0  0  0  0  0  0  0
   -2.7882   -2.4997    0.0000 N   0  0  0  0  0  0  0  0  0  0  0  0
   -1.5015   -3.2707    0.0000 C   0  0  0  0  0  0  0  0  0  0  0  0
   -2.4842   -4.4040    0.0000 C   0  0  0  0  0  0  0  0  0  0  0  0
   -3.9570   -4.1196    0.0000 C   0  0  0  0  0  0  0  0  0  0  0  0
   -4.9396   -5.2528    0.0000 C   0  0  0  0  0  0  0  0  0  0  0  0
   -5.2437   -3.3486    0.0000 C   0  0  0  0  0  0  0  0  0  0  0  0
   -0.0287   -3.5551    0.0000 C   0  0  0  0  0  0  0  0  0  0  0  0
    0.2850   -5.0219    0.0000 O   0  0  0  0  0  0  0  0  0  0  0  0
    0.9540   -2.4218    0.0000 N   0  0  0  0  0  0  0  0  0  0  0  0
    2.4268   -2.7062    0.0000 C   0  0  0  0  0  0  0  0  0  0  0  0
    3.1881   -3.9987    0.0000 C   0  0  0  0  0  0  0  0  0  0  0  0
    4.2965   -5.0093    0.0000 C   0  0  0  0  0  0  0  0  0  0  0  0
    5.6536   -5.6483    0.0000 C   0  0  0  0  0  0  0  0  0  0  0  0
    7.1387   -5.8590    0.0000 C   0  0  0  0  0  0  0  0  0  0  0  0
    1.4189   -3.8171    0.0000 C   0  0  0  0  0  0  0  0  0  0  0  0
    2.0803   -1.2468    0.0000 C   0  0  0  0  0  0  0  0  0  0  0  0
    0.5814   -1.1888    0.0000 O   0  0  0  0  0  0  0  0  0  0  0  0
    2.1794    0.2499    0.0000 N   0  0  0  0  0  0  0  0  0  0  0  0
    2.7152    1.6510    0.0000 C   0  0  0  0  0  0  0  0  0  0  0  0
    1.2178    1.5631    0.0000 C   0  0  0  0  0  0  0  0  0  0  0  0
    0.3930    2.8161    0.0000 C   0  0  0  0  0  0  0  0  0  0  0  0
   -1.1044    2.7282    0.0000 C   0  0  0  0  0  0  0  0  0  0  0  0
    0.0465    4.2755    0.0000 C   0  0  0  0  0  0  0  0  0  0  0  0
    3.6402    2.8318    0.0000 C   0  0  0  0  0  0  0  0  0  0  0  0
    2.6104    3.9225    0.0000 O   0  0  0  0  0  0  0  0  0  0  0  0
    4.8721    3.6876    0.0000 N   0  0  0  0  0  0  0  0  0  0  0  0
    6.3016    4.1422    0.0000 C   0  0  0  0  0  0  0  0  0  0  0  0
    5.2993    5.2581    0.0000 C   0  0  0  0  0  0  0  0  0  0  0  0
    5.7646    6.6841    0.0000 S   0  0  0  0  0  0  0  0  0  0  0  0
    7.8015    4.1552    0.0000 C   0  0  0  0  0  0  0  0  0  0  0  0
    8.0122    5.6404    0.0000 O   0  0  0  0  0  0  0  0  0  0  0  0
    9.2387    3.7256    0.0000 N   0  0  0  0  0  0  0  0  0  0  0  0
   10.4853    2.8914    0.0000 C   0  0  0  0  0  0  0  0  0  0  0  0
   10.7329    4.3709    0.0000 C   0  0  0  0  0  0  0  0  0  0  0  0
   12.1380    4.8962    0.0000 C   0  0  0  0  0  0  0  0  0  0  0  0
   12.3856    6.3756    0.0000 C   0  0  0  0  0  0  0  0  0  0  0  0
   13.7906    6.9009    0.0000 N   0  0  0  0  0  0  0  0  0  0  0  0
   14.0382    8.3803    0.0000 C   0  0  0  0  0  0  0  0  0  0  0  0
   15.4432    8.9056    0.0000 N   0  0  0  0  0  0  0  0  0  0  0  0
   12.8807    9.3344    0.0000 N   0  0  0  0  0  0  0  0  0  0  0  0
   11.4308    1.7269    0.0000 C   0  0  0  0  0  0  0  0  0  0  0  0
   12.7232    2.4882    0.0000 O   0  0  0  0  0  0  0  0  0  0  0  0
   11.9909    0.3354    0.0000 N   0  0  0  0  0  0  0  0  0  0  0  0
   12.1160   -1.1594    0.0000 C   0  0  0  0  0  0  0  0  0  0  0  0
   11.7950   -2.6246    0.0000 C   0  0  0  0  0  0  0  0  0  0  0  0
   11.0564   -3.9301    0.0000 C   0  0  0  0  0  0  0  0  0  0  0  0
    9.9657   -4.9599    0.0000 C   0  0  0  0  0  0  0  0  0  0  0  0
    8.6200   -5.6225    0.0000 C   0  0  0  0  0  0  0  0  0  0  0  0
   13.4197   -1.9012    0.0000 C   0  0  0  0  0  0  0  0  0  0  0  0
   13.4271   -0.4305    0.0000 C   0  0  0  0  0  0  0  0  0  0  0  0
   13.6340    1.0551    0.0000 O   0  0  0  0  0  0  0  0  0  0  0  0
   14.7138   -1.2015    0.0000 N   0  0  0  0  0  0  0  0  0  0  0  0
   16.0248   -0.4727    0.0000 C   0  0  0  0  0  0  0  0  0  0  0  0
   17.0075    0.6606    0.0000 C   0  0  0  0  0  0  0  0  0  0  0  0
   18.4803    0.3762    0.0000 C   0  0  0  0  0  0  0  0  0  0  0  0
   19.5761    1.4005    0.0000 C   0  0  0  0  0  0  0  0  0  0  0  0
   20.8889    0.6749    0.0000 N   0  0  0  0  0  0  0  0  0  0  0  0
   20.6045   -0.7978    0.0000 C   0  0  0  0  0  0  0  0  0  0  0  0
   19.1159   -0.9825    0.0000 N   0  0  0  0  0  0  0  0  0  0  0  0
   17.3115   -1.2437    0.0000 C   0  0  0  0  0  0  0  0  0  0  0  0
   17.2872   -2.7435    0.0000 O   0  0  0  0  0  0  0  0  0  0  0  0
   18.6225   -0.5148    0.0000 N   0  0  0  0  0  0  0  0  0  0  0  0
   19.9092   -1.2858    0.0000 C   0  0  0  0  0  0  0  0  0  0  0  0
   20.8547   -2.4504    0.0000 C   0  0  0  0  0  0  0  0  0  0  0  0
   20.3188   -3.8514    0.0000 C   0  0  0  0  0  0  0  0  0  0  0  0
   21.1373   -5.1084    0.0000 C   0  0  0  0  0  0  0  0  0  0  0  0
   20.1948   -6.2753    0.0000 N   0  0  0  0  0  0  0  0  0  0  0  0
   18.7938   -5.7394    0.0000 C   0  0  0  0  0  0  0  0  0  0  0  0
   18.8704   -4.2414    0.0000 N   0  0  0  0  0  0  0  0  0  0  0  0
   21.2203   -0.5570    0.0000 C   0  0  0  0  0  0  0  0  0  0  0  0
   21.6068    0.8924    0.0000 O   0  0  0  0  0  0  0  0  0  0  0  0
   22.5070   -1.3279    0.0000 N   0  0  0  0  0  0  0  0  0  0  0  0
   23.8180   -0.5991    0.0000 C   0  0  0  0  0  0  0  0  0  0  0  0
   24.8007    0.5342    0.0000 C   0  0  0  0  0  0  0  0  0  0  0  0
   26.2776    0.7966    0.0000 O   0  0  0  0  0  0  0  0  0  0  0  0
   25.1047   -1.3701    0.0000 C   0  0  0  0  0  0  0  0  0  0  0  0
   25.0804   -2.8699    0.0000 O   0  0  0  0  0  0  0  0  0  0  0  0
   26.4157   -0.6413    0.0000 N   0  0  0  0  0  0  0  0  0  0  0  0
   27.7024   -1.4122    0.0000 C   0  0  0  0  0  0  0  0  0  0  0  0
   28.6479   -2.5768    0.0000 C   0  0  0  0  0  0  0  0  0  0  0  0
   29.9346   -3.3478    0.0000 O   0  0  0  0  0  0  0  0  0  0  0  0
   28.1120   -3.9778    0.0000 C   0  0  0  0  0  0  0  0  0  0  0  0
   29.0135   -0.6834    0.0000 C   0  0  0  0  0  0  0  0  0  0  0  0
   30.3846   -1.2918    0.0000 O   0  0  0  0  0  0  0  0  0  0  0  0
   29.0378    0.8164    0.0000 O   0  0  0  0  0  0  0  0  0  0  0  0
  -26.7045   -2.0950    0.0000 H   0  0  0  0  0  0  0  0  0  0  0  0
  -26.2950   -4.6606    0.0000 H   0  0  0  0  0  0  0  0  0  0  0  0
  -24.7680   -1.6054    0.0000 H   0  0  0  0  0  0  0  0  0  0  0  0
  -22.9669   -2.2943    0.0000 H   0  0  0  0  0  0  0  0  0  0  0  0
  -24.6435   -4.9165    0.0000 H   0  0  0  0  0  0  0  0  0  0  0  0
  -22.8424   -5.6053    0.0000 H   0  0  0  0  0  0  0  0  0  0  0  0
  -21.6084   -6.4410    0.0000 H   0  0  0  0  0  0  0  0  0  0  0  0
  -19.9147   -3.4616    0.0000 H   0  0  0  0  0  0  0  0  0  0  0  0
  -18.9588   -7.7967    0.0000 H   0  0  0  0  0  0  0  0  0  0  0  0
  -17.9677   -6.1426    0.0000 H   0  0  0  0  0  0  0  0  0  0  0  0
  -22.2412   -7.3443    0.0000 H   0  0  0  0  0  0  0  0  0  0  0  0
  -21.7256   -5.9601    0.0000 H   0  0  0  0  0  0  0  0  0  0  0  0
  -19.3759   -1.8796    0.0000 H   0  0  0  0  0  0  0  0  0  0  0  0
  -17.5746   -0.6507    0.0000 H   0  0  0  0  0  0  0  0  0  0  0  0
  -16.3124   -4.8393    0.0000 H   0  0  0  0  0  0  0  0  0  0  0  0
  -17.6681   -3.9273    0.0000 H   0  0  0  0  0  0  0  0  0  0  0  0
  -13.3340   -3.3874    0.0000 H   0  0  0  0  0  0  0  0  0  0  0  0
  -14.7910   -2.1241    0.0000 H   0  0  0  0  0  0  0  0  0  0  0  0
  -14.3495   -6.5413    0.0000 H   0  0  0  0  0  0  0  0  0  0  0  0
  -15.7666   -5.4568    0.0000 H   0  0  0  0  0  0  0  0  0  0  0  0
  -11.8697   -4.1927    0.0000 H   0  0  0  0  0  0  0  0  0  0  0  0
  -10.3994   -8.4457    0.0000 H   0  0  0  0  0  0  0  0  0  0  0  0
   -9.9068   -5.8947    0.0000 H   0  0  0  0  0  0  0  0  0  0  0  0
  -12.8549   -9.2946    0.0000 H   0  0  0  0  0  0  0  0  0  0  0  0
  -14.8178   -7.5925    0.0000 H   0  0  0  0  0  0  0  0  0  0  0  0
  -17.7821    0.7319    0.0000 H   0  0  0  0  0  0  0  0  0  0  0  0
  -14.3575    0.5979    0.0000 H   0  0  0  0  0  0  0  0  0  0  0  0
  -17.3860    3.8045    0.0000 H   0  0  0  0  0  0  0  0  0  0  0  0
  -15.9103    3.8708    0.0000 H   0  0  0  0  0  0  0  0  0  0  0  0
  -17.4355    0.3785    0.0000 H   0  0  0  0  0  0  0  0  0  0  0  0
  -20.5774    2.0120    0.0000 H   0  0  0  0  0  0  0  0  0  0  0  0
  -20.1327    3.7401    0.0000 H   0  0  0  0  0  0  0  0  0  0  0  0
  -18.3501    3.8202    0.0000 H   0  0  0  0  0  0  0  0  0  0  0  0
  -20.3798    0.7741    0.0000 H   0  0  0  0  0  0  0  0  0  0  0  0
  -19.4191   -0.7297    0.0000 H   0  0  0  0  0  0  0  0  0  0  0  0
  -17.5122    0.0629    0.0000 H   0  0  0  0  0  0  0  0  0  0  0  0
  -12.7295    0.2205    0.0000 H   0  0  0  0  0  0  0  0  0  0  0  0
  -10.9040    1.0315    0.0000 H   0  0  0  0  0  0  0  0  0  0  0  0
  -12.6532    5.0805    0.0000 H   0  0  0  0  0  0  0  0  0  0  0  0
  -11.2438    4.6381    0.0000 H   0  0  0  0  0  0  0  0  0  0  0  0
  -15.1318    2.6484    0.0000 H   0  0  0  0  0  0  0  0  0  0  0  0
  -13.6883    1.8831    0.0000 H   0  0  0  0  0  0  0  0  0  0  0  0
  -15.2563    5.9594    0.0000 H   0  0  0  0  0  0  0  0  0  0  0  0
  -13.5538    5.4250    0.0000 H   0  0  0  0  0  0  0  0  0  0  0  0
  -17.1064    3.0756    0.0000 H   0  0  0  0  0  0  0  0  0  0  0  0
  -19.6195    6.3979    0.0000 H   0  0  0  0  0  0  0  0  0  0  0  0
  -19.2099    3.8323    0.0000 H   0  0  0  0  0  0  0  0  0  0  0  0
  -17.6024    8.0354    0.0000 H   0  0  0  0  0  0  0  0  0  0  0  0
  -15.1758    7.1074    0.0000 H   0  0  0  0  0  0  0  0  0  0  0  0
   -9.5033    0.1200    0.0000 H   0  0  0  0  0  0  0  0  0  0  0  0
   -7.5106    0.2577    0.0000 H   0  0  0  0  0  0  0  0  0  0  0  0
   -7.7693    4.6609    0.0000 H   0  0  0  0  0  0  0  0  0  0  0  0
   -6.5963    3.7631    0.0000 H   0  0  0  0  0  0  0  0  0  0  0  0
  -10.9304    3.2231    0.0000 H   0  0  0  0  0  0  0  0  0  0  0  0
   -9.8356    2.0103    0.0000 H   0  0  0  0  0  0  0  0  0  0  0  0
   -9.9149    6.3771    0.0000 H   0  0  0  0  0  0  0  0  0  0  0  0
   -8.4978    5.2926    0.0000 H   0  0  0  0  0  0  0  0  0  0  0  0
  -12.6397    4.2999    0.0000 H   0  0  0  0  0  0  0  0  0  0  0  0
  -13.8650    8.2814    0.0000 H   0  0  0  0  0  0  0  0  0  0  0  0
  -14.3576    5.7305    0.0000 H   0  0  0  0  0  0  0  0  0  0  0  0
  -11.4095    9.1303    0.0000 H   0  0  0  0  0  0  0  0  0  0  0  0
   -9.4466    7.4282    0.0000 H   0  0  0  0  0  0  0  0  0  0  0  0
   -6.5060   -1.0778    0.0000 H   0  0  0  0  0  0  0  0  0  0  0  0
   -4.4116   -1.6848    0.0000 H   0  0  0  0  0  0  0  0  0  0  0  0
   -3.3236    2.5961    0.0000 H   0  0  0  0  0  0  0  0  0  0  0  0
   -2.5534    0.9865    0.0000 H   0  0  0  0  0  0  0  0  0  0  0  0
   -6.7857    2.3262    0.0000 H   0  0  0  0  0  0  0  0  0  0  0  0
   -6.1718    0.8121    0.0000 H   0  0  0  0  0  0  0  0  0  0  0  0
   -4.7527    4.9427    0.0000 H   0  0  0  0  0  0  0  0  0  0  0  0
   -3.7921    3.4389    0.0000 H   0  0  0  0  0  0  0  0  0  0  0  0
   -8.0237    3.9227    0.0000 H   0  0  0  0  0  0  0  0  0  0  0  0
   -7.8133    8.0832    0.0000 H   0  0  0  0  0  0  0  0  0  0  0  0
   -9.1487    5.8546    0.0000 H   0  0  0  0  0  0  0  0  0  0  0  0
   -5.2156    8.0410    0.0000 H   0  0  0  0  0  0  0  0  0  0  0  0
   -3.9532    5.7703    0.0000 H   0  0  0  0  0  0  0  0  0  0  0  0
   -4.1783   -3.0633    0.0000 H   0  0  0  0  0  0  0  0  0  0  0  0
   -0.9656   -1.8697    0.0000 H   0  0  0  0  0  0  0  0  0  0  0  0
   -2.8452   -5.8599    0.0000 H   0  0  0  0  0  0  0  0  0  0  0  0
   -1.1975   -5.1749    0.0000 H   0  0  0  0  0  0  0  0  0  0  0  0
   -3.9589   -2.6196    0.0000 H   0  0  0  0  0  0  0  0  0  0  0  0
   -6.4361   -5.1501    0.0000 H   0  0  0  0  0  0  0  0  0  0  0  0
   -5.4755   -6.6539    0.0000 H   0  0  0  0  0  0  0  0  0  0  0  0
   -3.7565   -6.1749    0.0000 H   0  0  0  0  0  0  0  0  0  0  0  0
   -6.6338   -3.9122    0.0000 H   0  0  0  0  0  0  0  0  0  0  0  0
   -6.1891   -2.1840    0.0000 H   0  0  0  0  0  0  0  0  0  0  0  0
   -4.1301   -2.3436    0.0000 H   0  0  0  0  0  0  0  0  0  0  0  0
    0.2948   -1.0745    0.0000 H   0  0  0  0  0  0  0  0  0  0  0  0
    2.7228   -5.4247    0.0000 H   0  0  0  0  0  0  0  0  0  0  0  0
    1.7278   -4.3416    0.0000 H   0  0  0  0  0  0  0  0  0  0  0  0
    4.0896   -6.4950    0.0000 H   0  0  0  0  0  0  0  0  0  0  0  0
    3.0022   -5.7674    0.0000 H   0  0  0  0  0  0  0  0  0  0  0  0
    6.0724   -7.0887    0.0000 H   0  0  0  0  0  0  0  0  0  0  0  0
    4.6402   -6.7543    0.0000 H   0  0  0  0  0  0  0  0  0  0  0  0
    7.1518   -7.3589    0.0000 H   0  0  0  0  0  0  0  0  0  0  0  0
    0.1029   -4.1229    0.0000 H   0  0  0  0  0  0  0  0  0  0  0  0
    1.3604   -5.3980    0.0000 H   0  0  0  0  0  0  0  0  0  0  0  0
    2.5491   -5.0583    0.0000 H   0  0  0  0  0  0  0  0  0  0  0  0
    0.7141    0.5710    0.0000 H   0  0  0  0  0  0  0  0  0  0  0  0
    2.1864    3.0547    0.0000 H   0  0  0  0  0  0  0  0  0  0  0  0
   -0.0766    0.8051    0.0000 H   0  0  0  0  0  0  0  0  0  0  0  0
    1.2008    0.0632    0.0000 H   0  0  0  0  0  0  0  0  0  0  0  0
    1.6873    3.5741    0.0000 H   0  0  0  0  0  0  0  0  0  0  0  0
   -2.0758    3.8713    0.0000 H   0  0  0  0  0  0  0  0  0  0  0  0
   -2.4815    2.1336    0.0000 H   0  0  0  0  0  0  0  0  0  0  0  0
   -0.9384    1.2375    0.0000 H   0  0  0  0  0  0  0  0  0  0  0  0
   -1.3276    4.8771    0.0000 H   0  0  0  0  0  0  0  0  0  0  0  0
    0.2200    5.7654    0.0000 H   0  0  0  0  0  0  0  0  0  0  0  0
    1.5439    4.3633    0.0000 H   0  0  0  0  0  0  0  0  0  0  0  0
    4.2095    5.0333    0.0000 H   0  0  0  0  0  0  0  0  0  0  0  0
    6.9066    5.5147    0.0000 H   0  0  0  0  0  0  0  0  0  0  0  0
    3.9758    5.9640    0.0000 H   0  0  0  0  0  0  0  0  0  0  0  0
    4.1161    4.3362    0.0000 H   0  0  0  0  0  0  0  0  0  0  0  0
    4.7623    7.8001    0.0000 H   0  0  0  0  0  0  0  0  0  0  0  0
    9.8777    5.0827    0.0000 H   0  0  0  0  0  0  0  0  0  0  0  0
   11.9715    3.0946    0.0000 H   0  0  0  0  0  0  0  0  0  0  0  0
   10.2819    5.8014    0.0000 H   0  0  0  0  0  0  0  0  0  0  0  0
    9.2744    4.7211    0.0000 H   0  0  0  0  0  0  0  0  0  0  0  0
   13.6379    4.9092    0.0000 H   0  0  0  0  0  0  0  0  0  0  0  0
   12.5890    3.4656    0.0000 H   0  0  0  0  0  0  0  0  0  0  0  0
   12.1122    7.8505    0.0000 H   0  0  0  0  0  0  0  0  0  0  0  0
   10.8952    6.5455    0.0000 H   0  0  0  0  0  0  0  0  0  0  0  0
   14.9480    5.9467    0.0000 H   0  0  0  0  0  0  0  0  0  0  0  0
   15.6908   10.3850    0.0000 H   0  0  0  0  0  0  0  0  0  0  0  0
   16.6006    7.9515    0.0000 H   0  0  0  0  0  0  0  0  0  0  0  0
   13.1283   10.8139    0.0000 H   0  0  0  0  0  0  0  0  0  0  0  0
   11.4757    8.8091    0.0000 H   0  0  0  0  0  0  0  0  0  0  0  0
   13.3972    0.8572    0.0000 H   0  0  0  0  0  0  0  0  0  0  0  0
   13.2895   -2.4958    0.0000 H   0  0  0  0  0  0  0  0  0  0  0  0
   12.6812   -3.8348    0.0000 H   0  0  0  0  0  0  0  0  0  0  0  0
   12.5224   -4.2475    0.0000 H   0  0  0  0  0  0  0  0  0  0  0  0
   11.7156   -5.2775    0.0000 H   0  0  0  0  0  0  0  0  0  0  0  0
   11.2730   -5.6954    0.0000 H   0  0  0  0  0  0  0  0  0  0  0  0
   10.0162   -6.4591    0.0000 H   0  0  0  0  0  0  0  0  0  0  0  0
    9.0746   -7.0520    0.0000 H   0  0  0  0  0  0  0  0  0  0  0  0
   14.7655   -1.7820    0.0000 H   0  0  0  0  0  0  0  0  0  0  0  0
   13.9675   -3.3854    0.0000 H   0  0  0  0  0  0  0  0  0  0  0  0
   12.7322   -3.4326    0.0000 H   0  0  0  0  0  0  0  0  0  0  0  0
   14.8724   -2.6931    0.0000 H   0  0  0  0  0  0  0  0  0  0  0  0
   15.0794    0.6919    0.0000 H   0  0  0  0  0  0  0  0  0  0  0  0
   17.5433    2.0616    0.0000 H   0  0  0  0  0  0  0  0  0  0  0  0
   15.7208    1.4316    0.0000 H   0  0  0  0  0  0  0  0  0  0  0  0
   19.3914    2.8891    0.0000 H   0  0  0  0  0  0  0  0  0  0  0  0
   22.2476    1.3105    0.0000 H   0  0  0  0  0  0  0  0  0  0  0  0
   21.7548   -1.7606    0.0000 H   0  0  0  0  0  0  0  0  0  0  0  0
   19.0091    0.9345    0.0000 H   0  0  0  0  0  0  0  0  0  0  0  0
   18.9265   -2.4191    0.0000 H   0  0  0  0  0  0  0  0  0  0  0  0
   22.0378   -3.3724    0.0000 H   0  0  0  0  0  0  0  0  0  0  0  0
   22.1783   -1.7446    0.0000 H   0  0  0  0  0  0  0  0  0  0  0  0
   22.6354   -5.1850    0.0000 H   0  0  0  0  0  0  0  0  0  0  0  0
   20.5848   -7.7237    0.0000 H   0  0  0  0  0  0  0  0  0  0  0  0
   17.5368   -6.5579    0.0000 H   0  0  0  0  0  0  0  0  0  0  0  0
   22.6656   -2.8195    0.0000 H   0  0  0  0  0  0  0  0  0  0  0  0
   22.8726    0.5654    0.0000 H   0  0  0  0  0  0  0  0  0  0  0  0
   25.3365    1.9352    0.0000 H   0  0  0  0  0  0  0  0  0  0  0  0
   23.5140    1.3051    0.0000 H   0  0  0  0  0  0  0  0  0  0  0  0
   27.2562    1.3830    0.0000 H   0  0  0  0  0  0  0  0  0  0  0  0
   26.6227    0.8444    0.0000 H   0  0  0  0  0  0  0  0  0  0  0  0
   26.5889   -2.4173    0.0000 H   0  0  0  0  0  0  0  0  0  0  0  0
   29.7614   -1.5717    0.0000 H   0  0  0  0  0  0  0  0  0  0  0  0
   30.0932   -4.8393    0.0000 H   0  0  0  0  0  0  0  0  0  0  0  0
   28.9084   -5.2489    0.0000 H   0  0  0  0  0  0  0  0  0  0  0  0
   27.1293   -5.1111    0.0000 H   0  0  0  0  0  0  0  0  0  0  0  0
   26.7409   -3.3694    0.0000 H   0  0  0  0  0  0  0  0  0  0  0  0
  1  2  1  0
  2  3  1  0
  3  4  1  0
  4  5  2  0
  4  6  1  0
  6  7  1  0
  7  8  1  0
  8  9  1  0
  9 10  1  0
 10 11  2  0
 10 12  1  0
  7 13  1  0
 13 14  2  0
 13 15  1  0
 15 16  1  0
 16 17  1  0
 17 18  1  0
 18 19  1  0
 19 20  1  0
 20 21  1  0
 21 22  2  3
 21 23  1  0
 16 24  1  0
 24 25  2  0
 24 26  1  0
 26 27  1  0
 27 28  1  0
 28 29  1  0
 29 30  1  0
 29 31  1  0
 27 32  1  0
 32 33  2  0
 32 34  1  0
 34 35  1  0
 35 36  1  0
 36 37  1  0
 37 38  1  0
 38 39  1  0
 39 40  1  0
 40 41  2  3
 40 42  1  0
 35 43  1  0
 43 44  2  0
 43 45  1  0
 45 46  1  0
 46 47  1  0
 47 48  1  0
 48 49  1  0
 49 50  1  0
 50 51  1  0
 51 52  2  3
 51 53  1  0
 46 54  1  0
 54 55  2  0
 54 56  1  0
 56 57  1  0
 57 58  1  0
 58 59  1  0
 59 60  1  0
 60 61  1  0
 61 62  1  0
 62 63  2  3
 62 64  1  0
 57 65  1  0
 65 66  2  0
 65 67  1  0
 67 68  1  0
 68 69  1  0
 69 70  1  0
 70 71  1  0
 70 72  1  0
 68 73  1  0
 73 74  2  0
 73 75  1  0
 76 75  1  6
 76 77  1  0
 77 78  1  0
 78 79  1  0
 79 80  1  0
 76 81  1  0
 76 82  1  0
 82 83  2  0
 82 84  1  0
 84 85  1  0
 85 86  1  0
 86 87  1  0
 87 88  1  0
 87 89  1  0
 85 90  1  0
 90 91  2  0
 90 92  1  0
 92 93  1  0
 93 94  1  0
 94 95  1  0
 93 96  1  0
 96 97  2  0
 96 98  1  0
 98 99  1  0
 99100  1  0
100101  1  0
101102  1  0
102103  1  0
103104  1  0
104105  2  3
104106  1  0
 99107  1  0
107108  2  0
107109  1  0
109110  1  0
110111  1  0
111112  1  0
112113  1  0
113114  1  0
110115  1  0
110116  1  6
116117  2  0
116118  1  0
118119  1  0
119120  1  0
120121  1  0
121122  2  0
122123  1  0
123124  1  0
124125  2  0
119126  1  0
126127  2  0
126128  1  0
128129  1  0
129130  1  0
130131  1  0
131132  2  0
132133  1  0
133134  1  0
134135  2  0
129136  1  0
136137  2  0
136138  1  0
138139  1  0
139140  1  0
140141  1  0
139142  1  0
142143  2  0
142144  1  0
144145  1  0
145146  1  0
146147  1  0
146148  1  0
145149  1  0
149150  2  0
149151  1  0
125121  1  0
135131  1  0
 80114  2  0
  1152  1  0
  1153  1  0
  2154  1  0
  2155  1  0
  3156  1  0
  3157  1  0
  6158  1  0
  7159  1  6
  8160  1  0
  8161  1  0
  9162  1  0
  9163  1  0
 15164  1  0
 16165  1  6
 17166  1  0
 17167  1  0
 18168  1  0
 18169  1  0
 19170  1  0
 19171  1  0
 20172  1  0
 22173  1  0
 22174  1  0
 23175  1  0
 23176  1  0
 26177  1  0
 27178  1  1
 28179  1  0
 28180  1  0
 29181  1  0
 30182  1  0
 30183  1  0
 30184  1  0
 31185  1  0
 31186  1  0
 31187  1  0
 34188  1  0
 35189  1  1
 36190  1  0
 36191  1  0
 37192  1  0
 37193  1  0
 38194  1  0
 38195  1  0
 39196  1  0
 41197  1  0
 41198  1  0
 42199  1  0
 42200  1  0
 45201  1  0
 46202  1  1
 47203  1  0
 47204  1  0
 48205  1  0
 48206  1  0
 49207  1  0
 49208  1  0
 50209  1  0
 52210  1  0
 52211  1  0
 53212  1  0
 53213  1  0
 56214  1  0
 57215  1  1
 58216  1  0
 58217  1  0
 59218  1  0
 59219  1  0
 60220  1  0
 60221  1  0
 61222  1  0
 63223  1  0
 63224  1  0
 64225  1  0
 64226  1  0
 67227  1  0
 68228  1  6
 69229  1  0
 69230  1  0
 70231  1  0
 71232  1  0
 71233  1  0
 71234  1  0
 72235  1  0
 72236  1  0
 72237  1  0
 75238  1  0
 77239  1  0
 77240  1  0
 78241  1  0
 78242  1  0
 79243  1  0
 79244  1  0
 80245  1  0
 81246  1  0
 81247  1  0
 81248  1  0
 84249  1  0
 85250  1  1
 86251  1  0
 86252  1  0
 87253  1  0
 88254  1  0
 88255  1  0
 88256  1  0
 89257  1  0
 89258  1  0
 89259  1  0
 92260  1  0
 93261  1  1
 94262  1  0
 94263  1  0
 95264  1  0
 98265  1  0
 99266  1  1
100267  1  0
100268  1  0
101269  1  0
101270  1  0
102271  1  0
102272  1  0
103273  1  0
105274  1  0
105275  1  0
106276  1  0
106277  1  0
109278  1  0
111279  1  0
111280  1  0
112281  1  0
112282  1  0
113283  1  0
113284  1  0
114285  1  0
115286  1  0
115287  1  0
115288  1  0
118289  1  0
119290  1  1
120291  1  0
120292  1  0
122293  1  0
123294  1  0
124295  1  0
128296  1  0
129297  1  6
130298  1  0
130299  1  0
132300  1  0
133301  1  0
134302  1  0
138303  1  0
139304  1  1
140305  1  0
140306  1  0
141307  1  0
144308  1  0
145309  1  6
146310  1  1
147311  1  0
148312  1  0
148313  1  0
148314  1  0
M  CHG  7  12  -1  22   1  41   1  52   1  63   1 105   1 151  -1
M  END
