
     RDKit          2D

286286  0  0  0  0  0  0  0  0999 V2000
  -22.6577   -4.2233    0.0000 N   0  0  0  0  0  0  0  0  0  0  0  0
  -21.3254   -3.5341    0.0000 C   0  0  0  0  0  0  0  0  0  0  0  0
  -20.0624   -4.3433    0.0000 C   0  0  0  0  0  0  0  0  0  0  0  0
  -18.7301   -3.6541    0.0000 C   0  0  0  0  0  0  0  0  0  0  0  0
  -18.8440   -2.1584    0.0000 O   0  0  0  0  0  0  0  0  0  0  0  0
  -17.4671   -4.4633    0.0000 N   0  0  0  0  0  0  0  0  0  0  0  0
  -16.1348   -3.7741    0.0000 C   0  0  0  0  0  0  0  0  0  0  0  0
  -17.0449   -2.5817    0.0000 C   0  0  0  0  0  0  0  0  0  0  0  0
  -16.4673   -1.1974    0.0000 C   0  0  0  0  0  0  0  0  0  0  0  0
  -17.3774   -0.0050    0.0000 C   0  0  0  0  0  0  0  0  0  0  0  0
  -16.7998    1.3793    0.0000 N   0  0  0  0  0  0  0  0  0  0  0  0
  -17.7098    2.5717    0.0000 C   0  0  0  0  0  0  0  0  0  0  0  0
  -17.1323    3.9560    0.0000 N   0  0  0  0  0  0  0  0  0  0  0  0
  -19.1975    2.3797    0.0000 N   0  0  0  0  0  0  0  0  0  0  0  0
  -14.6471   -3.5821    0.0000 C   0  0  0  0  0  0  0  0  0  0  0  0
  -14.2426   -2.1377    0.0000 O   0  0  0  0  0  0  0  0  0  0  0  0
  -13.7371   -4.7745    0.0000 N   0  0  0  0  0  0  0  0  0  0  0  0
  -12.2494   -4.5826    0.0000 C   0  0  0  0  0  0  0  0  0  0  0  0
  -12.6968   -3.1508    0.0000 C   0  0  0  0  0  0  0  0  0  0  0  0
  -11.6805   -2.0475    0.0000 C   0  0  0  0  0  0  0  0  0  0  0  0
  -12.1279   -0.6158    0.0000 N   0  0  0  0  0  0  0  0  0  0  0  0
  -10.9298   -2.3156    0.0000 O   0  0  0  0  0  0  0  0  0  0  0  0
  -10.7858   -4.9110    0.0000 C   0  0  0  0  0  0  0  0  0  0  0  0
   -9.7696   -3.8077    0.0000 O   0  0  0  0  0  0  0  0  0  0  0  0
  -10.3384   -6.3427    0.0000 N   0  0  0  0  0  0  0  0  0  0  0  0
   -8.8748   -6.6711    0.0000 C   0  0  0  0  0  0  0  0  0  0  0  0
   -9.4524   -8.0555    0.0000 C   0  0  0  0  0  0  0  0  0  0  0  0
  -10.9524   -8.0647    0.0000 C   0  0  0  0  0  0  0  0  0  0  0  0
   -9.5217   -9.5539    0.0000 C   0  0  0  0  0  0  0  0  0  0  0  0
  -10.8540  -10.2431    0.0000 C   0  0  0  0  0  0  0  0  0  0  0  0
   -7.3871   -6.4792    0.0000 C   0  0  0  0  0  0  0  0  0  0  0  0
   -6.6292   -7.7736    0.0000 O   0  0  0  0  0  0  0  0  0  0  0  0
   -6.8096   -5.0949    0.0000 N   0  0  0  0  0  0  0  0  0  0  0  0
   -5.3219   -4.9029    0.0000 C   0  0  0  0  0  0  0  0  0  0  0  0
   -4.2682   -5.9705    0.0000 C   0  0  0  0  0  0  0  0  0  0  0  0
   -3.0315   -6.8193    0.0000 C   0  0  0  0  0  0  0  0  0  0  0  0
   -1.6565   -7.4188    0.0000 C   0  0  0  0  0  0  0  0  0  0  0  0
   -0.1929   -7.7472    0.0000 C   0  0  0  0  0  0  0  0  0  0  0  0
    1.3064   -7.7928    0.0000 C   0  0  0  0  0  0  0  0  0  0  0  0
    2.7873   -7.5537    0.0000 C   0  0  0  0  0  0  0  0  0  0  0  0
    4.1961   -7.0387    0.0000 C   0  0  0  0  0  0  0  0  0  0  0  0
   -5.9797   -6.2509    0.0000 C   0  0  0  0  0  0  0  0  0  0  0  0
   -6.1545   -3.6552    0.0000 C   0  0  0  0  0  0  0  0  0  0  0  0
   -7.5524   -4.1991    0.0000 O   0  0  0  0  0  0  0  0  0  0  0  0
   -6.7359   -2.2725    0.0000 N   0  0  0  0  0  0  0  0  0  0  0  0
   -7.0452   -0.8047    0.0000 C   0  0  0  0  0  0  0  0  0  0  0  0
   -8.2230   -1.7336    0.0000 C   0  0  0  0  0  0  0  0  0  0  0  0
   -9.6163   -1.1780    0.0000 C   0  0  0  0  0  0  0  0  0  0  0  0
  -10.1774   -1.7443    0.0000 O   0  0  0  0  0  0  0  0  0  0  0  0
   -9.8319    0.3064    0.0000 O   0  0  0  0  0  0  0  0  0  0  0  0
   -7.0711    0.6951    0.0000 C   0  0  0  0  0  0  0  0  0  0  0  0
   -8.5665    0.8119    0.0000 O   0  0  0  0  0  0  0  0  0  0  0  0
   -6.8127    2.1727    0.0000 N   0  0  0  0  0  0  0  0  0  0  0  0
   -6.2793    3.5746    0.0000 C   0  0  0  0  0  0  0  0  0  0  0  0
   -7.7723    3.4300    0.0000 C   0  0  0  0  0  0  0  0  0  0  0  0
   -8.6441    4.6506    0.0000 C   0  0  0  0  0  0  0  0  0  0  0  0
  -10.1371    4.5059    0.0000 C   0  0  0  0  0  0  0  0  0  0  0  0
  -11.0089    5.7266    0.0000 N   0  0  0  0  0  0  0  0  0  0  0  0
  -12.5019    5.5819    0.0000 C   0  0  0  0  0  0  0  0  0  0  0  0
  -13.3737    6.8026    0.0000 N   0  0  0  0  0  0  0  0  0  0  0  0
  -13.1231    4.2166    0.0000 N   0  0  0  0  0  0  0  0  0  0  0  0
   -5.4902    4.8503    0.0000 C   0  0  0  0  0  0  0  0  0  0  0  0
   -6.6851    5.7571    0.0000 O   0  0  0  0  0  0  0  0  0  0  0  0
   -4.4740    5.9536    0.0000 N   0  0  0  0  0  0  0  0  0  0  0  0
   -3.2673    6.8447    0.0000 C   0  0  0  0  0  0  0  0  0  0  0  0
   -4.6015    7.5301    0.0000 C   0  0  0  0  0  0  0  0  0  0  0  0
   -4.4918    9.0261    0.0000 C   0  0  0  0  0  0  0  0  0  0  0  0
   -6.0897    7.7180    0.0000 C   0  0  0  0  0  0  0  0  0  0  0  0
   -6.6712    9.1007    0.0000 C   0  0  0  0  0  0  0  0  0  0  0  0
   -1.9138    7.4912    0.0000 C   0  0  0  0  0  0  0  0  0  0  0  0
   -2.2533    8.9523    0.0000 O   0  0  0  0  0  0  0  0  0  0  0  0
   -0.4624    7.8700    0.0000 N   0  0  0  0  0  0  0  0  0  0  0  0
    1.0344    7.9672    0.0000 C   0  0  0  0  0  0  0  0  0  0  0  0
    0.2826    9.2652    0.0000 C   0  0  0  0  0  0  0  0  0  0  0  0
    1.0308   10.5653    0.0000 C   0  0  0  0  0  0  0  0  0  0  0  0
    0.2790   11.8633    0.0000 C   0  0  0  0  0  0  0  0  0  0  0  0
    1.0272   13.1633    0.0000 C   0  0  0  0  0  0  0  0  0  0  0  0
    0.2754   14.4613    0.0000 N   0  0  0  0  0  0  0  0  0  0  0  0
    2.5226    7.7794    0.0000 C   0  0  0  0  0  0  0  0  0  0  0  0
    3.0270    9.1920    0.0000 O   0  0  0  0  0  0  0  0  0  0  0  0
    3.9484    7.3133    0.0000 N   0  0  0  0  0  0  0  0  0  0  0  0
    5.2601    6.5858    0.0000 C   0  0  0  0  0  0  0  0  0  0  0  0
    5.3294    8.0842    0.0000 C   0  0  0  0  0  0  0  0  0  0  0  0
    6.6617    8.7734    0.0000 C   0  0  0  0  0  0  0  0  0  0  0  0
    6.7310   10.2718    0.0000 C   0  0  0  0  0  0  0  0  0  0  0  0
    8.0633   10.9610    0.0000 O   0  0  0  0  0  0  0  0  0  0  0  0
    5.4680   11.0810    0.0000 O   0  0  0  0  0  0  0  0  0  0  0  0
    6.4105    5.6233    0.0000 C   0  0  0  0  0  0  0  0  0  0  0  0
    7.5986    6.5390    0.0000 O   0  0  0  0  0  0  0  0  0  0  0  0
    7.3580    4.4604    0.0000 N   0  0  0  0  0  0  0  0  0  0  0  0
    8.0682    3.1392    0.0000 C   0  0  0  0  0  0  0  0  0  0  0  0
    8.9366    4.3622    0.0000 C   0  0  0  0  0  0  0  0  0  0  0  0
   10.4300    4.2217    0.0000 C   0  0  0  0  0  0  0  0  0  0  0  0
   11.2984    5.4448    0.0000 C   0  0  0  0  0  0  0  0  0  0  0  0
   11.7853    3.5789    0.0000 C   0  0  0  0  0  0  0  0  0  0  0  0
    8.5156    1.7074    0.0000 C   0  0  0  0  0  0  0  0  0  0  0  0
   10.0101    1.8355    0.0000 O   0  0  0  0  0  0  0  0  0  0  0  0
    8.6840    0.2169    0.0000 N   0  0  0  0  0  0  0  0  0  0  0  0
    8.5672   -1.2785    0.0000 C   0  0  0  0  0  0  0  0  0  0  0  0
    8.1695   -2.7249    0.0000 C   0  0  0  0  0  0  0  0  0  0  0  0
    7.5052   -4.0698    0.0000 C   0  0  0  0  0  0  0  0  0  0  0  0
    6.5985   -5.2647    0.0000 C   0  0  0  0  0  0  0  0  0  0  0  0
    5.4820   -6.2664    0.0000 C   0  0  0  0  0  0  0  0  0  0  0  0
    9.7998   -2.1333    0.0000 C   0  0  0  0  0  0  0  0  0  0  0  0
    9.9589   -0.7191    0.0000 C   0  0  0  0  0  0  0  0  0  0  0  0
   10.3498    0.7291    0.0000 O   0  0  0  0  0  0  0  0  0  0  0  0
   11.1393   -1.6447    0.0000 N   0  0  0  0  0  0  0  0  0  0  0  0
   12.5311   -1.0853    0.0000 C   0  0  0  0  0  0  0  0  0  0  0  0
   13.6476   -0.0836    0.0000 C   0  0  0  0  0  0  0  0  0  0  0  0
   14.3541    1.2396    0.0000 O   0  0  0  0  0  0  0  0  0  0  0  0
   15.1195   -0.3724    0.0000 C   0  0  0  0  0  0  0  0  0  0  0  0
   13.7114   -2.0109    0.0000 C   0  0  0  0  0  0  0  0  0  0  0  0
   13.5000   -3.4959    0.0000 O   0  0  0  0  0  0  0  0  0  0  0  0
   15.1032   -1.4514    0.0000 N   0  0  0  0  0  0  0  0  0  0  0  0
   16.2836   -2.3770    0.0000 C   0  0  0  0  0  0  0  0  0  0  0  0
   17.0762   -3.6505    0.0000 C   0  0  0  0  0  0  0  0  0  0  0  0
   16.3696   -4.9737    0.0000 C   0  0  0  0  0  0  0  0  0  0  0  0
   17.1622   -6.2472    0.0000 C   0  0  0  0  0  0  0  0  0  0  0  0
   16.4557   -7.5703    0.0000 N   0  0  0  0  0  0  0  0  0  0  0  0
   17.2483   -8.8438    0.0000 C   0  0  0  0  0  0  0  0  0  0  0  0
   16.5417  -10.1670    0.0000 N   0  0  0  0  0  0  0  0  0  0  0  0
   18.7475   -8.7941    0.0000 N   0  0  0  0  0  0  0  0  0  0  0  0
   17.6754   -1.8176    0.0000 C   0  0  0  0  0  0  0  0  0  0  0  0
   17.8868   -0.3326    0.0000 O   0  0  0  0  0  0  0  0  0  0  0  0
   18.8557   -2.7432    0.0000 N   0  0  0  0  0  0  0  0  0  0  0  0
   20.2475   -2.1838    0.0000 C   0  0  0  0  0  0  0  0  0  0  0  0
   21.3640   -1.1821    0.0000 C   0  0  0  0  0  0  0  0  0  0  0  0
   22.7898   -1.6481    0.0000 C   0  0  0  0  0  0  0  0  0  0  0  0
   22.0706    0.1411    0.0000 C   0  0  0  0  0  0  0  0  0  0  0  0
   21.2780    1.4146    0.0000 C   0  0  0  0  0  0  0  0  0  0  0  0
   21.4279   -3.1094    0.0000 C   0  0  0  0  0  0  0  0  0  0  0  0
   22.8775   -2.7238    0.0000 O   0  0  0  0  0  0  0  0  0  0  0  0
   21.2165   -4.5944    0.0000 O   0  0  0  0  0  0  0  0  0  0  0  0
  -23.9207   -3.4141    0.0000 H   0  0  0  0  0  0  0  0  0  0  0  0
  -22.7270   -5.7217    0.0000 H   0  0  0  0  0  0  0  0  0  0  0  0
  -22.2355   -2.3417    0.0000 H   0  0  0  0  0  0  0  0  0  0  0  0
  -20.3092   -2.4308    0.0000 H   0  0  0  0  0  0  0  0  0  0  0  0
  -21.0786   -5.4466    0.0000 H   0  0  0  0  0  0  0  0  0  0  0  0
  -19.1523   -5.5357    0.0000 H   0  0  0  0  0  0  0  0  0  0  0  0
  -17.5364   -5.9617    0.0000 H   0  0  0  0  0  0  0  0  0  0  0  0
  -15.6874   -5.2058    0.0000 H   0  0  0  0  0  0  0  0  0  0  0  0
  -18.3079   -1.7725    0.0000 H   0  0  0  0  0  0  0  0  0  0  0  0
  -18.2979   -3.4063    0.0000 H   0  0  0  0  0  0  0  0  0  0  0  0
  -15.4511   -0.0941    0.0000 H   0  0  0  0  0  0  0  0  0  0  0  0
  -15.2043   -2.0066    0.0000 H   0  0  0  0  0  0  0  0  0  0  0  0
  -18.6404    0.8042    0.0000 H   0  0  0  0  0  0  0  0  0  0  0  0
  -18.5205   -0.9762    0.0000 H   0  0  0  0  0  0  0  0  0  0  0  0
  -15.3121    1.5713    0.0000 H   0  0  0  0  0  0  0  0  0  0  0  0
  -18.0423    5.1484    0.0000 H   0  0  0  0  0  0  0  0  0  0  0  0
  -15.6446    4.1480    0.0000 H   0  0  0  0  0  0  0  0  0  0  0  0
  -20.1076    3.5721    0.0000 H   0  0  0  0  0  0  0  0  0  0  0  0
  -19.7751    0.9954    0.0000 H   0  0  0  0  0  0  0  0  0  0  0  0
  -14.3146   -6.1589    0.0000 H   0  0  0  0  0  0  0  0  0  0  0  0
  -12.3187   -6.0810    0.0000 H   0  0  0  0  0  0  0  0  0  0  0  0
  -13.4547   -1.8564    0.0000 H   0  0  0  0  0  0  0  0  0  0  0  0
  -14.1562   -3.4972    0.0000 H   0  0  0  0  0  0  0  0  0  0  0  0
  -11.1117    0.4875    0.0000 H   0  0  0  0  0  0  0  0  0  0  0  0
  -13.5915   -0.2874    0.0000 H   0  0  0  0  0  0  0  0  0  0  0  0
  -11.4816   -7.3139    0.0000 H   0  0  0  0  0  0  0  0  0  0  0  0
   -8.8055   -5.1727    0.0000 H   0  0  0  0  0  0  0  0  0  0  0  0
   -7.9888   -8.3839    0.0000 H   0  0  0  0  0  0  0  0  0  0  0  0
  -11.7045   -9.5512    0.0000 H   0  0  0  0  0  0  0  0  0  0  0  0
  -12.4037   -7.9190    0.0000 H   0  0  0  0  0  0  0  0  0  0  0  0
  -11.4125   -6.8238    0.0000 H   0  0  0  0  0  0  0  0  0  0  0  0
   -9.0743  -10.9856    0.0000 H   0  0  0  0  0  0  0  0  0  0  0  0
   -8.0340   -9.3619    0.0000 H   0  0  0  0  0  0  0  0  0  0  0  0
  -10.9233  -11.7415    0.0000 H   0  0  0  0  0  0  0  0  0  0  0  0
  -12.3416  -10.4350    0.0000 H   0  0  0  0  0  0  0  0  0  0  0  0
  -11.6345   -8.9621    0.0000 H   0  0  0  0  0  0  0  0  0  0  0  0
   -7.8582   -4.0223    0.0000 H   0  0  0  0  0  0  0  0  0  0  0  0
   -4.6590   -7.4187    0.0000 H   0  0  0  0  0  0  0  0  0  0  0  0
   -5.6247   -6.6106    0.0000 H   0  0  0  0  0  0  0  0  0  0  0  0
   -3.1412   -8.3153    0.0000 H   0  0  0  0  0  0  0  0  0  0  0  0
   -4.2424   -7.7047    0.0000 H   0  0  0  0  0  0  0  0  0  0  0  0
   -1.4811   -8.9085    0.0000 H   0  0  0  0  0  0  0  0  0  0  0  0
   -2.6779   -8.5173    0.0000 H   0  0  0  0  0  0  0  0  0  0  0  0
    0.2613   -9.1768    0.0000 H   0  0  0  0  0  0  0  0  0  0  0  0
   -0.9880   -9.0192    0.0000 H   0  0  0  0  0  0  0  0  0  0  0  0
    2.0229   -9.1106    0.0000 H   0  0  0  0  0  0  0  0  0  0  0  0
    0.7664   -9.1922    0.0000 H   0  0  0  0  0  0  0  0  0  0  0  0
    3.8743   -8.5873    0.0000 H   0  0  0  0  0  0  0  0  0  0  0  0
    2.5218   -9.0300    0.0000 H   0  0  0  0  0  0  0  0  0  0  0  0
    4.8427   -8.3922    0.0000 H   0  0  0  0  0  0  0  0  0  0  0  0
   -7.1581   -6.9118    0.0000 H   0  0  0  0  0  0  0  0  0  0  0  0
   -5.5947   -7.7854    0.0000 H   0  0  0  0  0  0  0  0  0  0  0  0
   -4.4519   -6.9464    0.0000 H   0  0  0  0  0  0  0  0  0  0  0  0
   -8.1025   -2.8910    0.0000 H   0  0  0  0  0  0  0  0  0  0  0  0
   -8.4005   -0.1619    0.0000 H   0  0  0  0  0  0  0  0  0  0  0  0
   -9.1617   -2.9036    0.0000 H   0  0  0  0  0  0  0  0  0  0  0  0
   -7.3786   -2.9733    0.0000 H   0  0  0  0  0  0  0  0  0  0  0  0
   -8.2967    2.3911    0.0000 H   0  0  0  0  0  0  0  0  0  0  0  0
   -6.9108    4.9352    0.0000 H   0  0  0  0  0  0  0  0  0  0  0  0
   -9.1258    2.7834    0.0000 H   0  0  0  0  0  0  0  0  0  0  0  0
   -7.7322    1.9305    0.0000 H   0  0  0  0  0  0  0  0  0  0  0  0
   -9.0458    6.0958    0.0000 H   0  0  0  0  0  0  0  0  0  0  0  0
   -7.4873    5.6055    0.0000 H   0  0  0  0  0  0  0  0  0  0  0  0
  -11.4906    3.8594    0.0000 H   0  0  0  0  0  0  0  0  0  0  0  0
   -9.9145    3.0225    0.0000 H   0  0  0  0  0  0  0  0  0  0  0  0
  -10.3877    7.0919    0.0000 H   0  0  0  0  0  0  0  0  0  0  0  0
  -14.8667    6.6579    0.0000 H   0  0  0  0  0  0  0  0  0  0  0  0
  -12.7525    8.1679    0.0000 H   0  0  0  0  0  0  0  0  0  0  0  0
  -14.6161    4.0720    0.0000 H   0  0  0  0  0  0  0  0  0  0  0  0
  -12.2513    2.9960    0.0000 H   0  0  0  0  0  0  0  0  0  0  0  0
   -5.4757    7.0701    0.0000 H   0  0  0  0  0  0  0  0  0  0  0  0
   -3.0630    8.3307    0.0000 H   0  0  0  0  0  0  0  0  0  0  0  0
   -5.3785    6.2470    0.0000 H   0  0  0  0  0  0  0  0  0  0  0  0
   -5.9141    9.8937    0.0000 H   0  0  0  0  0  0  0  0  0  0  0  0
   -4.2316   10.4613    0.0000 H   0  0  0  0  0  0  0  0  0  0  0  0
   -3.1856    9.2062    0.0000 H   0  0  0  0  0  0  0  0  0  0  0  0
   -7.5524    7.3855    0.0000 H   0  0  0  0  0  0  0  0  0  0  0  0
   -6.1995    6.2220    0.0000 H   0  0  0  0  0  0  0  0  0  0  0  0
   -8.1594    9.2885    0.0000 H   0  0  0  0  0  0  0  0  0  0  0  0
   -6.7446   10.5989    0.0000 H   0  0  0  0  0  0  0  0  0  0  0  0
   -5.3324    9.7772    0.0000 H   0  0  0  0  0  0  0  0  0  0  0  0
   -0.8802    9.3106    0.0000 H   0  0  0  0  0  0  0  0  0  0  0  0
    2.0097    9.1068    0.0000 H   0  0  0  0  0  0  0  0  0  0  0  0
   -0.8678   10.2278    0.0000 H   0  0  0  0  0  0  0  0  0  0  0  0
   -1.0647    8.6058    0.0000 H   0  0  0  0  0  0  0  0  0  0  0  0
    2.2877   11.3839    0.0000 H   0  0  0  0  0  0  0  0  0  0  0  0
    2.3799    9.9097    0.0000 H   0  0  0  0  0  0  0  0  0  0  0  0
   -0.9802   12.6784    0.0000 H   0  0  0  0  0  0  0  0  0  0  0  0
   -0.9779   11.0446    0.0000 H   0  0  0  0  0  0  0  0  0  0  0  0
    2.1749   14.1291    0.0000 H   0  0  0  0  0  0  0  0  0  0  0  0
    2.2863   12.3482    0.0000 H   0  0  0  0  0  0  0  0  0  0  0  0
    1.0235   15.7614    0.0000 H   0  0  0  0  0  0  0  0  0  0  0  0
   -0.8750   15.4239    0.0000 H   0  0  0  0  0  0  0  0  0  0  0  0
   -0.9815   13.6427    0.0000 H   0  0  0  0  0  0  0  0  0  0  0  0
    4.3758    8.7511    0.0000 H   0  0  0  0  0  0  0  0  0  0  0  0
    6.6968    7.0172    0.0000 H   0  0  0  0  0  0  0  0  0  0  0  0
    5.0599    9.5598    0.0000 H   0  0  0  0  0  0  0  0  0  0  0  0
    3.8395    8.2580    0.0000 H   0  0  0  0  0  0  0  0  0  0  0  0
    8.1494    8.9654    0.0000 H   0  0  0  0  0  0  0  0  0  0  0  0
    7.4422    7.4925    0.0000 H   0  0  0  0  0  0  0  0  0  0  0  0
    8.4949    5.4389    0.0000 H   0  0  0  0  0  0  0  0  0  0  0  0
    9.5100    2.7254    0.0000 H   0  0  0  0  0  0  0  0  0  0  0  0
    9.3343    5.8086    0.0000 H   0  0  0  0  0  0  0  0  0  0  0  0
    7.7772    5.3139    0.0000 H   0  0  0  0  0  0  0  0  0  0  0  0
   10.3941    2.7222    0.0000 H   0  0  0  0  0  0  0  0  0  0  0  0
   12.7978    5.4874    0.0000 H   0  0  0  0  0  0  0  0  0  0  0  0
   11.6961    6.8911    0.0000 H   0  0  0  0  0  0  0  0  0  0  0  0
   10.0316    6.2480    0.0000 H   0  0  0  0  0  0  0  0  0  0  0  0
   13.1143    4.2744    0.0000 H   0  0  0  0  0  0  0  0  0  0  0  0
   12.8390    2.5114    0.0000 H   0  0  0  0  0  0  0  0  0  0  0  0
   10.9169    2.3559    0.0000 H   0  0  0  0  0  0  0  0  0  0  0  0
   10.1694    0.4254    0.0000 H   0  0  0  0  0  0  0  0  0  0  0  0
    9.6658   -2.6206    0.0000 H   0  0  0  0  0  0  0  0  0  0  0  0
    9.0795   -3.9172    0.0000 H   0  0  0  0  0  0  0  0  0  0  0  0
    8.9612   -4.4307    0.0000 H   0  0  0  0  0  0  0  0  0  0  0  0
    8.3319   -5.3214    0.0000 H   0  0  0  0  0  0  0  0  0  0  0  0
    8.0264   -5.7240    0.0000 H   0  0  0  0  0  0  0  0  0  0  0  0
    7.0002   -6.7099    0.0000 H   0  0  0  0  0  0  0  0  0  0  0  0
    6.3730   -7.4731    0.0000 H   0  0  0  0  0  0  0  0  0  0  0  0
    9.7839   -3.7991    0.0000 H   0  0  0  0  0  0  0  0  0  0  0  0
   10.9850   -2.9835    0.0000 H   0  0  0  0  0  0  0  0  0  0  0  0
   10.7293   -1.1986    0.0000 H   0  0  0  0  0  0  0  0  0  0  0  0
   11.1105   -3.1444    0.0000 H   0  0  0  0  0  0  0  0  0  0  0  0
   11.7385    0.1882    0.0000 H   0  0  0  0  0  0  0  0  0  0  0  0
   12.4672    0.8420    0.0000 H   0  0  0  0  0  0  0  0  0  0  0  0
   15.8361    1.4717    0.0000 H   0  0  0  0  0  0  0  0  0  0  0  0
   16.3036    0.3085    0.0000 H   0  0  0  0  0  0  0  0  0  0  0  0
   16.2537   -1.4752    0.0000 H   0  0  0  0  0  0  0  0  0  0  0  0
   15.0708   -2.0496    0.0000 H   0  0  0  0  0  0  0  0  0  0  0  0
   15.4941   -0.0033    0.0000 H   0  0  0  0  0  0  0  0  0  0  0  0
   15.0533   -3.2352    0.0000 H   0  0  0  0  0  0  0  0  0  0  0  0
   18.2566   -4.5761    0.0000 H   0  0  0  0  0  0  0  0  0  0  0  0
   18.4019   -2.9487    0.0000 H   0  0  0  0  0  0  0  0  0  0  0  0
   15.2531   -5.9754    0.0000 H   0  0  0  0  0  0  0  0  0  0  0  0
   15.0852   -4.1989    0.0000 H   0  0  0  0  0  0  0  0  0  0  0  0
   18.3426   -7.1728    0.0000 H   0  0  0  0  0  0  0  0  0  0  0  0
   18.3925   -5.3890    0.0000 H   0  0  0  0  0  0  0  0  0  0  0  0
   14.9565   -7.6200    0.0000 H   0  0  0  0  0  0  0  0  0  0  0  0
   17.3343  -11.4405    0.0000 H   0  0  0  0  0  0  0  0  0  0  0  0
   15.0426  -10.2167    0.0000 H   0  0  0  0  0  0  0  0  0  0  0  0
   19.5401  -10.0676    0.0000 H   0  0  0  0  0  0  0  0  0  0  0  0
   19.4540   -7.4710    0.0000 H   0  0  0  0  0  0  0  0  0  0  0  0
   18.8269   -4.2429    0.0000 H   0  0  0  0  0  0  0  0  0  0  0  0
   19.4549   -0.9103    0.0000 H   0  0  0  0  0  0  0  0  0  0  0  0
   20.0796   -0.4072    0.0000 H   0  0  0  0  0  0  0  0  0  0  0  0
   24.0200   -0.7900    0.0000 H   0  0  0  0  0  0  0  0  0  0  0  0
   23.9701   -2.5737    0.0000 H   0  0  0  0  0  0  0  0  0  0  0  0
   22.6044   -3.1366    0.0000 H   0  0  0  0  0  0  0  0  0  0  0  0
   23.1871    1.1428    0.0000 H   0  0  0  0  0  0  0  0  0  0  0  0
   23.3550   -0.6337    0.0000 H   0  0  0  0  0  0  0  0  0  0  0  0
   21.9845    2.7378    0.0000 H   0  0  0  0  0  0  0  0  0  0  0  0
   20.0976    2.3402    0.0000 H   0  0  0  0  0  0  0  0  0  0  0  0
   20.0477    0.5565    0.0000 H   0  0  0  0  0  0  0  0  0  0  0  0
  1  2  1  0
  2  3  1  0
  3  4  1  0
  4  5  2  0
  4  6  1  0
  6  7  1  0
  7  8  1  0
  8  9  1  0
  9 10  1  0
 10 11  1  0
 11 12  1  0
 12 13  2  3
 12 14  1  0
  7 15  1  0
 15 16  2  0
 15 17  1  0
 17 18  1  0
 18 19  1  0
 19 20  1  0
 20 21  1  0
 20 22  2  0
 18 23  1  0
 23 24  2  0
 23 25  1  0
 25 26  1  0
 26 27  1  0
 27 28  1  0
 27 29  1  0
 29 30  1  0
 26 31  1  0
 31 32  2  0
 31 33  1  0
 34 33  1  1
 34 35  1  0
 35 36  1  0
 36 37  1  0
 37 38  1  0
 38 39  1  0
 39 40  1  0
 40 41  1  0
 34 42  1  0
 34 43  1  0
 43 44  2  0
 43 45  1  0
 45 46  1  0
 46 47  1  0
 47 48  1  0
 48 49  2  0
 48 50  1  0
 46 51  1  0
 51 52  2  0
 51 53  1  0
 53 54  1  0
 54 55  1  0
 55 56  1  0
 56 57  1  0
 57 58  1  0
 58 59  1  0
 59 60  2  3
 59 61  1  0
 54 62  1  0
 62 63  2  0
 62 64  1  0
 64 65  1  0
 65 66  1  0
 66 67  1  0
 66 68  1  0
 68 69  1  0
 65 70  1  0
 70 71  2  0
 70 72  1  0
 72 73  1  0
 73 74  1  0
 74 75  1  0
 75 76  1  0
 76 77  1  0
 77 78  1  0
 73 79  1  0
 79 80  2  0
 79 81  1  0
 81 82  1  0
 82 83  1  0
 83 84  1  0
 84 85  1  0
 85 86  2  0
 85 87  1  0
 82 88  1  0
 88 89  2  0
 88 90  1  0
 90 91  1  0
 91 92  1  0
 92 93  1  0
 93 94  1  0
 93 95  1  0
 91 96  1  0
 96 97  2  0
 96 98  1  0
 98 99  1  0
 99100  1  0
100101  1  0
101102  1  0
102103  1  0
 99104  1  0
 99105  1  6
105106  2  0
105107  1  0
107108  1  0
108109  1  0
109110  1  0
109111  1  0
108112  1  0
112113  2  0
112114  1  0
114115  1  0
115116  1  0
116117  1  0
117118  1  0
118119  1  0
119120  1  0
120121  2  3
120122  1  0
115123  1  0
123124  2  0
123125  1  0
125126  1  0
126127  1  0
127128  1  0
127129  1  0
129130  1  0
126131  1  0
131132  2  0
131133  1  0
 41103  2  0
  1134  1  0
  1135  1  0
  2136  1  0
  2137  1  0
  3138  1  0
  3139  1  0
  6140  1  0
  7141  1  1
  8142  1  0
  8143  1  0
  9144  1  0
  9145  1  0
 10146  1  0
 10147  1  0
 11148  1  0
 13149  1  0
 13150  1  0
 14151  1  0
 14152  1  0
 17153  1  0
 18154  1  1
 19155  1  0
 19156  1  0
 21157  1  0
 21158  1  0
 25159  1  0
 26160  1  6
 27161  1  1
 28162  1  0
 28163  1  0
 28164  1  0
 29165  1  0
 29166  1  0
 30167  1  0
 30168  1  0
 30169  1  0
 33170  1  0
 35171  1  0
 35172  1  0
 36173  1  0
 36174  1  0
 37175  1  0
 37176  1  0
 38177  1  0
 38178  1  0
 39179  1  0
 39180  1  0
 40181  1  0
 40182  1  0
 41183  1  0
 42184  1  0
 42185  1  0
 42186  1  0
 45187  1  0
 46188  1  1
 47189  1  0
 47190  1  0
 53191  1  0
 54192  1  1
 55193  1  0
 55194  1  0
 56195  1  0
 56196  1  0
 57197  1  0
 57198  1  0
 58199  1  0
 60200  1  0
 60201  1  0
 61202  1  0
 61203  1  0
 64204  1  0
 65205  1  1
 66206  1  1
 67207  1  0
 67208  1  0
 67209  1  0
 68210  1  0
 68211  1  0
 69212  1  0
 69213  1  0
 69214  1  0
 72215  1  0
 73216  1  1
 74217  1  0
 74218  1  0
 75219  1  0
 75220  1  0
 76221  1  0
 76222  1  0
 77223  1  0
 77224  1  0
 78225  1  0
 78226  1  0
 78227  1  0
 81228  1  0
 82229  1  1
 83230  1  0
 83231  1  0
 84232  1  0
 84233  1  0
 90234  1  0
 91235  1  1
 92236  1  0
 92237  1  0
 93238  1  0
 94239  1  0
 94240  1  0
 94241  1  0
 95242  1  0
 95243  1  0
 95244  1  0
 98245  1  0
100246  1  0
100247  1  0
101248  1  0
101249  1  0
102250  1  0
102251  1  0
103252  1  0
104253  1  0
104254  1  0
104255  1  0
107256  1  0
108257  1  1
109258  1  1
110259  1  0
111260  1  0
111261  1  0
111262  1  0
114263  1  0
115264  1  6
116265  1  0
116266  1  0
117267  1  0
117268  1  0
118269  1  0
118270  1  0
119271  1  0
121272  1  0
121273  1  0
122274  1  0
122275  1  0
125276  1  0
126277  1  1
127278  1  1
128279  1  0
128280  1  0
128281  1  0
129282  1  0
129283  1  0
130284  1  0
130285  1  0
130286  1  0
M  CHG  7  13   1  50  -1  60   1  78   1  87  -1 121   1 133  -1
M  END
