
     RDKit          2D

458467  0  0  0  0  0  0  0  0999 V2000
   39.9435    0.7788    0.0000 C   0  0  0  0  0  0  0  0  0  0  0  0
   41.2444    1.5257    0.0000 N   0  0  0  0  0  0  0  0  0  0  0  0
   42.5416    0.7725    0.0000 C   0  0  0  0  0  0  0  0  0  0  0  0
   42.5379   -0.7275    0.0000 C   0  0  0  0  0  0  0  0  0  0  0  0
   43.8351   -1.4807    0.0000 C   0  0  0  0  0  0  0  0  0  0  0  0
   45.1360   -0.7339    0.0000 C   0  0  0  0  0  0  0  0  0  0  0  0
   45.1397    0.7661    0.0000 C   0  0  0  0  0  0  0  0  0  0  0  0
   43.8425    1.5193    0.0000 C   0  0  0  0  0  0  0  0  0  0  0  0
   46.5674    1.2261    0.0000 C   0  0  0  0  0  0  0  0  0  0  0  0
   47.4461    0.0104    0.0000 O   0  0  0  0  0  0  0  0  0  0  0  0
   46.5615   -1.2009    0.0000 C   0  0  0  0  0  0  0  0  0  0  0  0
   47.0215   -2.6286    0.0000 O   0  0  0  0  0  0  0  0  0  0  0  0
   48.0354    1.5344    0.0000 C   0  0  0  0  0  0  0  0  0  0  0  0
   48.5024    2.9598    0.0000 C   0  0  0  0  0  0  0  0  0  0  0  0
   49.9704    3.2681    0.0000 C   0  0  0  0  0  0  0  0  0  0  0  0
   50.9713    2.1509    0.0000 C   0  0  0  0  0  0  0  0  0  0  0  0
   50.5043    0.7255    0.0000 C   0  0  0  0  0  0  0  0  0  0  0  0
   49.0363    0.4172    0.0000 C   0  0  0  0  0  0  0  0  0  0  0  0
   52.4393    2.4592    0.0000 O   0  0  0  0  0  0  0  0  0  0  0  0
   47.5014    4.0770    0.0000 O   0  0  0  0  0  0  0  0  0  0  0  0
   46.0335    3.7687    0.0000 C   0  0  0  0  0  0  0  0  0  0  0  0
   45.5664    2.3433    0.0000 C   0  0  0  0  0  0  0  0  0  0  0  0
   44.3164    2.7002    0.0000 C   0  0  0  0  0  0  0  0  0  0  0  0
   43.7826    3.2961    0.0000 C   0  0  0  0  0  0  0  0  0  0  0  0
   44.0316    4.0563    0.0000 C   0  0  0  0  0  0  0  0  0  0  0  0
   44.8146    4.2207    0.0000 C   0  0  0  0  0  0  0  0  0  0  0  0
   42.5636    5.6948    0.0000 O   0  0  0  0  0  0  0  0  0  0  0  0
   39.9399   -0.7212    0.0000 S   0  0  0  0  0  0  0  0  0  0  0  0
   38.6464    1.5320    0.0000 N   0  0  0  0  0  0  0  0  0  0  0  0
   37.3455    0.7852    0.0000 C   0  0  0  0  0  0  0  0  0  0  0  0
   36.0483    1.5384    0.0000 C   0  0  0  0  0  0  0  0  0  0  0  0
   34.7474    0.7916    0.0000 C   0  0  0  0  0  0  0  0  0  0  0  0
   34.7437   -0.7084    0.0000 O   0  0  0  0  0  0  0  0  0  0  0  0
   33.4502    1.5448    0.0000 N   0  0  0  0  0  0  0  0  0  0  0  0
   32.1493    0.7979    0.0000 C   0  0  0  0  0  0  0  0  0  0  0  0
   31.1823   -0.3488    0.0000 C   0  0  0  0  0  0  0  0  0  0  0  0
   29.7058   -0.0847    0.0000 C   0  0  0  0  0  0  0  0  0  0  0  0
   28.7388   -1.2314    0.0000 N   0  0  0  0  0  0  0  0  0  0  0  0
   29.2616    0.5773    0.0000 O   0  0  0  0  0  0  0  0  0  0  0  0
   30.8521    1.5511    0.0000 C   0  0  0  0  0  0  0  0  0  0  0  0
   30.8558    3.0511    0.0000 O   0  0  0  0  0  0  0  0  0  0  0  0
   29.5513    0.8043    0.0000 N   0  0  0  0  0  0  0  0  0  0  0  0
   28.2541    1.5575    0.0000 C   0  0  0  0  0  0  0  0  0  0  0  0
   27.2927    2.7089    0.0000 C   0  0  0  0  0  0  0  0  0  0  0  0
   25.8149    2.4521    0.0000 C   0  0  0  0  0  0  0  0  0  0  0  0
   24.8535    3.6035    0.0000 C   0  0  0  0  0  0  0  0  0  0  0  0
   23.3554    3.5287    0.0000 O   0  0  0  0  0  0  0  0  0  0  0  0
   25.3700    5.0118    0.0000 O   0  0  0  0  0  0  0  0  0  0  0  0
   26.9532    0.8107    0.0000 C   0  0  0  0  0  0  0  0  0  0  0  0
   26.7667   -0.6777    0.0000 O   0  0  0  0  0  0  0  0  0  0  0  0
   25.6560    1.5639    0.0000 N   0  0  0  0  0  0  0  0  0  0  0  0
   24.3551    0.8171    0.0000 C   0  0  0  0  0  0  0  0  0  0  0  0
   23.3881   -0.3296    0.0000 C   0  0  0  0  0  0  0  0  0  0  0  0
   21.9116   -0.0655    0.0000 C   0  0  0  0  0  0  0  0  0  0  0  0
   20.9446   -1.2122    0.0000 C   0  0  0  0  0  0  0  0  0  0  0  0
   20.6144    0.6876    0.0000 C   0  0  0  0  0  0  0  0  0  0  0  0
   23.0579    1.5702    0.0000 C   0  0  0  0  0  0  0  0  0  0  0  0
   22.8787    3.0595    0.0000 O   0  0  0  0  0  0  0  0  0  0  0  0
   21.7571    0.8234    0.0000 N   0  0  0  0  0  0  0  0  0  0  0  0
   20.4599    1.5766    0.0000 C   0  0  0  0  0  0  0  0  0  0  0  0
   19.4985    2.7280    0.0000 C   0  0  0  0  0  0  0  0  0  0  0  0
   20.0150    4.1363    0.0000 C   0  0  0  0  0  0  0  0  0  0  0  0
   19.0536    5.2877    0.0000 C   0  0  0  0  0  0  0  0  0  0  0  0
   19.5701    6.6960    0.0000 C   0  0  0  0  0  0  0  0  0  0  0  0
   18.6088    7.8474    0.0000 N   0  0  0  0  0  0  0  0  0  0  0  0
   19.1590    0.8298    0.0000 C   0  0  0  0  0  0  0  0  0  0  0  0
   18.9725   -0.6586    0.0000 O   0  0  0  0  0  0  0  0  0  0  0  0
   17.8618    1.5830    0.0000 N   0  0  0  0  0  0  0  0  0  0  0  0
   16.5609    0.8362    0.0000 C   0  0  0  0  0  0  0  0  0  0  0  0
   16.2601   -0.6334    0.0000 C   0  0  0  0  0  0  0  0  0  0  0  0
   15.5395   -1.9489    0.0000 C   0  0  0  0  0  0  0  0  0  0  0  0
   14.4631   -2.9936    0.0000 C   0  0  0  0  0  0  0  0  0  0  0  0
   13.1267   -3.6747    0.0000 C   0  0  0  0  0  0  0  0  0  0  0  0
   17.8747    0.1123    0.0000 C   0  0  0  0  0  0  0  0  0  0  0  0
   16.4152    2.3291    0.0000 C   0  0  0  0  0  0  0  0  0  0  0  0
   17.7378    3.0367    0.0000 O   0  0  0  0  0  0  0  0  0  0  0  0
   15.8360    3.7127    0.0000 N   0  0  0  0  0  0  0  0  0  0  0  0
   14.8746    4.8641    0.0000 C   0  0  0  0  0  0  0  0  0  0  0  0
   15.1018    6.3468    0.0000 C   0  0  0  0  0  0  0  0  0  0  0  0
   16.4995    6.8914    0.0000 O   0  0  0  0  0  0  0  0  0  0  0  0
   13.6166    5.6810    0.0000 C   0  0  0  0  0  0  0  0  0  0  0  0
   14.2369    7.0468    0.0000 O   0  0  0  0  0  0  0  0  0  0  0  0
   12.1736    6.0908    0.0000 N   0  0  0  0  0  0  0  0  0  0  0  0
   10.6740    6.0571    0.0000 C   0  0  0  0  0  0  0  0  0  0  0  0
    9.6565    7.1592    0.0000 C   0  0  0  0  0  0  0  0  0  0  0  0
   10.1021    8.5915    0.0000 C   0  0  0  0  0  0  0  0  0  0  0  0
   11.5653    8.9217    0.0000 C   0  0  0  0  0  0  0  0  0  0  0  0
   12.0110   10.3539    0.0000 C   0  0  0  0  0  0  0  0  0  0  0  0
   10.9934   11.4560    0.0000 C   0  0  0  0  0  0  0  0  0  0  0  0
    9.5302   11.1258    0.0000 C   0  0  0  0  0  0  0  0  0  0  0  0
    9.0845    9.6936    0.0000 C   0  0  0  0  0  0  0  0  0  0  0  0
    9.2510    5.5829    0.0000 C   0  0  0  0  0  0  0  0  0  0  0  0
    8.5699    6.9194    0.0000 O   0  0  0  0  0  0  0  0  0  0  0  0
    8.0309    4.7103    0.0000 N   0  0  0  0  0  0  0  0  0  0  0  0
    7.1223    3.5168    0.0000 C   0  0  0  0  0  0  0  0  0  0  0  0
    5.6262    3.4084    0.0000 C   0  0  0  0  0  0  0  0  0  0  0  0
    4.7843    4.6498    0.0000 C   0  0  0  0  0  0  0  0  0  0  0  0
    5.4384    5.9996    0.0000 C   0  0  0  0  0  0  0  0  0  0  0  0
    4.5965    7.2411    0.0000 C   0  0  0  0  0  0  0  0  0  0  0  0
    3.1004    7.1326    0.0000 C   0  0  0  0  0  0  0  0  0  0  0  0
    2.4462    5.7828    0.0000 C   0  0  0  0  0  0  0  0  0  0  0  0
    3.2882    4.5414    0.0000 C   0  0  0  0  0  0  0  0  0  0  0  0
    6.6058    2.1085    0.0000 C   0  0  0  0  0  0  0  0  0  0  0  0
    5.1363    2.4093    0.0000 O   0  0  0  0  0  0  0  0  0  0  0  0
    6.5274    0.6106    0.0000 N   0  0  0  0  0  0  0  0  0  0  0  0
    6.8939   -0.8440    0.0000 C   0  0  0  0  0  0  0  0  0  0  0  0
    7.6729   -2.1258    0.0000 C   0  0  0  0  0  0  0  0  0  0  0  0
    8.7952   -3.1211    0.0000 C   0  0  0  0  0  0  0  0  0  0  0  0
   10.1609   -3.7414    0.0000 C   0  0  0  0  0  0  0  0  0  0  0  0
   11.6488   -3.9315    0.0000 C   0  0  0  0  0  0  0  0  0  0  0  0
    5.4174   -0.5799    0.0000 C   0  0  0  0  0  0  0  0  0  0  0  0
    6.0459   -2.0812    0.0000 C   0  0  0  0  0  0  0  0  0  0  0  0
    6.3468   -3.5508    0.0000 O   0  0  0  0  0  0  0  0  0  0  0  0
    4.5504   -1.9655    0.0000 N   0  0  0  0  0  0  0  0  0  0  0  0
    3.7024   -3.2028    0.0000 C   0  0  0  0  0  0  0  0  0  0  0  0
    3.3287   -4.6555    0.0000 C   0  0  0  0  0  0  0  0  0  0  0  0
    1.8837   -5.0582    0.0000 C   0  0  0  0  0  0  0  0  0  0  0  0
    1.5100   -6.5109    0.0000 C   0  0  0  0  0  0  0  0  0  0  0  0
    0.3882   -4.9424    0.0000 C   0  0  0  0  0  0  0  0  0  0  0  0
    2.2068   -3.0870    0.0000 C   0  0  0  0  0  0  0  0  0  0  0  0
    1.5593   -1.7340    0.0000 O   0  0  0  0  0  0  0  0  0  0  0  0
    1.3588   -4.3243    0.0000 N   0  0  0  0  0  0  0  0  0  0  0  0
   -0.1367   -4.2085    0.0000 C   0  0  0  0  0  0  0  0  0  0  0  0
   -1.5024   -3.5882    0.0000 C   0  0  0  0  0  0  0  0  0  0  0  0
   -1.6481   -2.0953    0.0000 C   0  0  0  0  0  0  0  0  0  0  0  0
   -3.0139   -1.4750    0.0000 C   0  0  0  0  0  0  0  0  0  0  0  0
   -3.1596    0.0179    0.0000 N   0  0  0  0  0  0  0  0  0  0  0  0
   -4.5253    0.6381    0.0000 C   0  0  0  0  0  0  0  0  0  0  0  0
   -4.6710    2.1310    0.0000 N   0  0  0  0  0  0  0  0  0  0  0  0
   -5.7454   -0.2345    0.0000 N   0  0  0  0  0  0  0  0  0  0  0  0
   -0.9847   -5.4458    0.0000 C   0  0  0  0  0  0  0  0  0  0  0  0
   -0.5070   -6.8677    0.0000 O   0  0  0  0  0  0  0  0  0  0  0  0
   -2.4802   -5.3300    0.0000 N   0  0  0  0  0  0  0  0  0  0  0  0
   -3.3283   -6.5673    0.0000 C   0  0  0  0  0  0  0  0  0  0  0  0
   -3.7020   -8.0200    0.0000 C   0  0  0  0  0  0  0  0  0  0  0  0
   -5.1469   -8.4227    0.0000 C   0  0  0  0  0  0  0  0  0  0  0  0
   -5.5206   -9.8754    0.0000 O   0  0  0  0  0  0  0  0  0  0  0  0
   -6.4404   -7.6632    0.0000 O   0  0  0  0  0  0  0  0  0  0  0  0
   -4.8238   -6.4516    0.0000 C   0  0  0  0  0  0  0  0  0  0  0  0
   -5.4713   -5.0985    0.0000 O   0  0  0  0  0  0  0  0  0  0  0  0
   -5.6718   -7.6888    0.0000 N   0  0  0  0  0  0  0  0  0  0  0  0
   -7.1673   -7.5731    0.0000 C   0  0  0  0  0  0  0  0  0  0  0  0
   -8.5331   -6.9528    0.0000 C   0  0  0  0  0  0  0  0  0  0  0  0
   -9.7531   -7.8254    0.0000 C   0  0  0  0  0  0  0  0  0  0  0  0
  -11.1189   -7.2051    0.0000 C   0  0  0  0  0  0  0  0  0  0  0  0
  -12.4362   -7.9225    0.0000 N   0  0  0  0  0  0  0  0  0  0  0  0
  -11.2646   -5.7122    0.0000 O   0  0  0  0  0  0  0  0  0  0  0  0
   -8.0154   -8.8104    0.0000 C   0  0  0  0  0  0  0  0  0  0  0  0
   -7.3678  -10.1634    0.0000 O   0  0  0  0  0  0  0  0  0  0  0  0
   -9.5109   -8.6946    0.0000 N   0  0  0  0  0  0  0  0  0  0  0  0
  -10.3589   -9.9319    0.0000 C   0  0  0  0  0  0  0  0  0  0  0  0
  -10.7326  -11.3846    0.0000 C   0  0  0  0  0  0  0  0  0  0  0  0
  -12.0371  -12.1250    0.0000 C   0  0  0  0  0  0  0  0  0  0  0  0
  -10.5869  -12.8775    0.0000 C   0  0  0  0  0  0  0  0  0  0  0  0
   -9.2212  -13.4978    0.0000 C   0  0  0  0  0  0  0  0  0  0  0  0
  -11.8544   -9.8161    0.0000 C   0  0  0  0  0  0  0  0  0  0  0  0
  -12.6620   -8.5521    0.0000 O   0  0  0  0  0  0  0  0  0  0  0  0
  -12.7024  -11.0534    0.0000 N   0  0  0  0  0  0  0  0  0  0  0  0
  -12.1999  -12.4667    0.0000 C   0  0  0  0  0  0  0  0  0  0  0  0
  -13.3888  -13.3814    0.0000 C   0  0  0  0  0  0  0  0  0  0  0  0
  -14.6260  -12.5334    0.0000 C   0  0  0  0  0  0  0  0  0  0  0  0
  -14.2019  -11.0946    0.0000 C   0  0  0  0  0  0  0  0  0  0  0  0
  -15.6771  -10.8231    0.0000 C   0  0  0  0  0  0  0  0  0  0  0  0
  -16.7817  -11.8379    0.0000 O   0  0  0  0  0  0  0  0  0  0  0  0
  -16.1796   -9.4098    0.0000 N   0  0  0  0  0  0  0  0  0  0  0  0
  -17.6549   -9.1384    0.0000 C   0  0  0  0  0  0  0  0  0  0  0  0
  -19.1340   -9.3879    0.0000 C   0  0  0  0  0  0  0  0  0  0  0  0
  -20.0896   -8.2316    0.0000 C   0  0  0  0  0  0  0  0  0  0  0  0
  -21.5687   -8.4811    0.0000 C   0  0  0  0  0  0  0  0  0  0  0  0
  -22.6581   -7.4500    0.0000 O   0  0  0  0  0  0  0  0  0  0  0  0
  -22.0922   -9.8868    0.0000 O   0  0  0  0  0  0  0  0  0  0  0  0
  -18.1574   -7.7251    0.0000 C   0  0  0  0  0  0  0  0  0  0  0  0
  -17.1847   -6.5832    0.0000 O   0  0  0  0  0  0  0  0  0  0  0  0
  -19.6326   -7.4536    0.0000 N   0  0  0  0  0  0  0  0  0  0  0  0
  -20.1352   -6.0403    0.0000 C   0  0  0  0  0  0  0  0  0  0  0  0
  -20.1240   -4.5403    0.0000 C   0  0  0  0  0  0  0  0  0  0  0  0
  -18.8194   -3.8000    0.0000 C   0  0  0  0  0  0  0  0  0  0  0  0
  -18.8083   -2.3001    0.0000 C   0  0  0  0  0  0  0  0  0  0  0  0
  -17.3403   -3.5505    0.0000 C   0  0  0  0  0  0  0  0  0  0  0  0
  -21.6104   -5.7688    0.0000 C   0  0  0  0  0  0  0  0  0  0  0  0
  -22.7150   -6.7836    0.0000 O   0  0  0  0  0  0  0  0  0  0  0  0
  -22.1129   -4.3555    0.0000 N   0  0  0  0  0  0  0  0  0  0  0  0
  -23.5882   -4.0841    0.0000 C   0  0  0  0  0  0  0  0  0  0  0  0
  -25.0673   -4.3335    0.0000 C   0  0  0  0  0  0  0  0  0  0  0  0
  -26.0229   -3.1773    0.0000 C   0  0  0  0  0  0  0  0  0  0  0  0
  -27.5020   -3.4268    0.0000 C   0  0  0  0  0  0  0  0  0  0  0  0
  -28.5914   -2.3957    0.0000 O   0  0  0  0  0  0  0  0  0  0  0  0
  -28.0255   -4.8325    0.0000 O   0  0  0  0  0  0  0  0  0  0  0  0
  -24.0907   -2.6708    0.0000 C   0  0  0  0  0  0  0  0  0  0  0  0
  -23.1180   -1.5289    0.0000 O   0  0  0  0  0  0  0  0  0  0  0  0
  -25.5659   -2.3993    0.0000 N   0  0  0  0  0  0  0  0  0  0  0  0
  -26.0685   -0.9860    0.0000 C   0  0  0  0  0  0  0  0  0  0  0  0
  -26.0573    0.5140    0.0000 C   0  0  0  0  0  0  0  0  0  0  0  0
  -24.7527    1.2543    0.0000 C   0  0  0  0  0  0  0  0  0  0  0  0
  -24.7416    2.7542    0.0000 N   0  0  0  0  0  0  0  0  0  0  0  0
  -23.4593    0.4946    0.0000 O   0  0  0  0  0  0  0  0  0  0  0  0
  -27.5437   -0.7145    0.0000 C   0  0  0  0  0  0  0  0  0  0  0  0
  -28.6483   -1.7293    0.0000 O   0  0  0  0  0  0  0  0  0  0  0  0
  -28.0462    0.6988    0.0000 N   0  0  0  0  0  0  0  0  0  0  0  0
  -29.5215    0.9702    0.0000 C   0  0  0  0  0  0  0  0  0  0  0  0
  -31.0006    0.7208    0.0000 C   0  0  0  0  0  0  0  0  0  0  0  0
  -31.9562    1.8770    0.0000 C   0  0  0  0  0  0  0  0  0  0  0  0
  -33.4353    1.6275    0.0000 N   0  0  0  0  0  0  0  0  0  0  0  0
  -31.7884    3.3676    0.0000 O   0  0  0  0  0  0  0  0  0  0  0  0
  -30.0240    2.3836    0.0000 C   0  0  0  0  0  0  0  0  0  0  0  0
  -29.0513    3.5254    0.0000 O   0  0  0  0  0  0  0  0  0  0  0  0
  -31.4992    2.6550    0.0000 N   0  0  0  0  0  0  0  0  0  0  0  0
  -32.0018    4.0683    0.0000 C   0  0  0  0  0  0  0  0  0  0  0  0
  -31.9906    5.5683    0.0000 C   0  0  0  0  0  0  0  0  0  0  0  0
  -33.2840    6.3279    0.0000 C   0  0  0  0  0  0  0  0  0  0  0  0
  -33.2729    7.8279    0.0000 C   0  0  0  0  0  0  0  0  0  0  0  0
  -34.4640    8.7395    0.0000 O   0  0  0  0  0  0  0  0  0  0  0  0
  -31.9683    8.5682    0.0000 O   0  0  0  0  0  0  0  0  0  0  0  0
  -33.4770    4.3398    0.0000 C   0  0  0  0  0  0  0  0  0  0  0  0
  -34.5816    3.3250    0.0000 O   0  0  0  0  0  0  0  0  0  0  0  0
  -33.9795    5.7531    0.0000 N   0  0  0  0  0  0  0  0  0  0  0  0
  -35.4547    6.0245    0.0000 C   0  0  0  0  0  0  0  0  0  0  0  0
  -36.9339    5.7751    0.0000 C   0  0  0  0  0  0  0  0  0  0  0  0
  -37.8895    6.9313    0.0000 C   0  0  0  0  0  0  0  0  0  0  0  0
  -39.3686    6.6818    0.0000 C   0  0  0  0  0  0  0  0  0  0  0  0
  -40.3242    7.8380    0.0000 C   0  0  0  0  0  0  0  0  0  0  0  0
  -41.8033    7.5885    0.0000 N   0  0  0  0  0  0  0  0  0  0  0  0
  -35.9573    7.4379    0.0000 C   0  0  0  0  0  0  0  0  0  0  0  0
  -35.1310    8.6898    0.0000 O   0  0  0  0  0  0  0  0  0  0  0  0
  -37.4325    7.7093    0.0000 N   0  0  0  0  0  0  0  0  0  0  0  0
  -37.9350    9.1226    0.0000 C   0  0  0  0  0  0  0  0  0  0  0  0
  -37.7411   10.6100    0.0000 C   0  0  0  0  0  0  0  0  0  0  0  0
  -39.4103    9.3941    0.0000 C   0  0  0  0  0  0  0  0  0  0  0  0
  -40.6304    8.5215    0.0000 O   0  0  0  0  0  0  0  0  0  0  0  0
  -39.9128   10.8074    0.0000 N   0  0  0  0  0  0  0  0  0  0  0  0
  -41.3516   11.2316    0.0000 C   0  0  0  0  0  0  0  0  0  0  0  0
  -41.3928   12.7310    0.0000 C   0  0  0  0  0  0  0  0  0  0  0  0
  -39.9795   13.2335    0.0000 C   0  0  0  0  0  0  0  0  0  0  0  0
  -39.0648   12.0447    0.0000 C   0  0  0  0  0  0  0  0  0  0  0  0
  -37.9781   13.0786    0.0000 C   0  0  0  0  0  0  0  0  0  0  0  0
  -36.5393   12.6544    0.0000 O   0  0  0  0  0  0  0  0  0  0  0  0
  -38.1497   14.5688    0.0000 O   0  0  0  0  0  0  0  0  0  0  0  0
   41.0652    3.0149    0.0000 H   0  0  0  0  0  0  0  0  0  0  0  0
   41.2371   -1.4743    0.0000 H   0  0  0  0  0  0  0  0  0  0  0  0
   43.8315   -2.9807    0.0000 H   0  0  0  0  0  0  0  0  0  0  0  0
   43.4831    2.9756    0.0000 H   0  0  0  0  0  0  0  0  0  0  0  0
   50.4374    4.6936    0.0000 H   0  0  0  0  0  0  0  0  0  0  0  0
   51.5053   -0.3917    0.0000 H   0  0  0  0  0  0  0  0  0  0  0  0
   48.5693   -1.0082    0.0000 H   0  0  0  0  0  0  0  0  0  0  0  0
   53.4403    1.3420    0.0000 H   0  0  0  0  0  0  0  0  0  0  0  0
   43.6314    0.6096    0.0000 H   0  0  0  0  0  0  0  0  0  0  0  0
   41.6029    3.0252    0.0000 H   0  0  0  0  0  0  0  0  0  0  0  0
   45.4995    6.3114    0.0000 H   0  0  0  0  0  0  0  0  0  0  0  0
   43.0306    7.1203    0.0000 H   0  0  0  0  0  0  0  0  0  0  0  0
   38.6500    3.0320    0.0000 H   0  0  0  0  0  0  0  0  0  0  0  0
   36.3785   -0.3615    0.0000 H   0  0  0  0  0  0  0  0  0  0  0  0
   38.3068   -0.3662    0.0000 H   0  0  0  0  0  0  0  0  0  0  0  0
   35.0869    2.6898    0.0000 H   0  0  0  0  0  0  0  0  0  0  0  0
   37.0153    2.6851    0.0000 H   0  0  0  0  0  0  0  0  0  0  0  0
   33.4539    3.0448    0.0000 H   0  0  0  0  0  0  0  0  0  0  0  0
   33.1107   -0.3535    0.0000 H   0  0  0  0  0  0  0  0  0  0  0  0
   30.6659   -1.7570    0.0000 H   0  0  0  0  0  0  0  0  0  0  0  0
   32.4795   -1.1019    0.0000 H   0  0  0  0  0  0  0  0  0  0  0  0
   27.2410   -1.1492    0.0000 H   0  0  0  0  0  0  0  0  0  0  0  0
   29.2484   -2.6421    0.0000 H   0  0  0  0  0  0  0  0  0  0  0  0
   29.1847   -0.6502    0.0000 H   0  0  0  0  0  0  0  0  0  0  0  0
   29.2211    2.7042    0.0000 H   0  0  0  0  0  0  0  0  0  0  0  0
   26.7831    4.1197    0.0000 H   0  0  0  0  0  0  0  0  0  0  0  0
   28.5936    3.4557    0.0000 H   0  0  0  0  0  0  0  0  0  0  0  0
   24.5140    1.7053    0.0000 H   0  0  0  0  0  0  0  0  0  0  0  0
   25.6023    0.9672    0.0000 H   0  0  0  0  0  0  0  0  0  0  0  0
   24.4086    6.1632    0.0000 H   0  0  0  0  0  0  0  0  0  0  0  0
   25.2966    3.0202    0.0000 H   0  0  0  0  0  0  0  0  0  0  0  0
   25.3165   -0.3344    0.0000 H   0  0  0  0  0  0  0  0  0  0  0  0
   23.0472   -1.7904    0.0000 H   0  0  0  0  0  0  0  0  0  0  0  0
   24.6853   -1.0828    0.0000 H   0  0  0  0  0  0  0  0  0  0  0  0
   21.7063    1.4203    0.0000 H   0  0  0  0  0  0  0  0  0  0  0  0
   19.4715   -1.4950    0.0000 H   0  0  0  0  0  0  0  0  0  0  0  0
   20.4281   -2.6205    0.0000 H   0  0  0  0  0  0  0  0  0  0  0  0
   22.1403   -2.1179    0.0000 H   0  0  0  0  0  0  0  0  0  0  0  0
   19.4142   -0.2122    0.0000 H   0  0  0  0  0  0  0  0  0  0  0  0
   19.6530    1.8391    0.0000 H   0  0  0  0  0  0  0  0  0  0  0  0
   21.7139    1.7079    0.0000 H   0  0  0  0  0  0  0  0  0  0  0  0
   21.3905   -0.6311    0.0000 H   0  0  0  0  0  0  0  0  0  0  0  0
   21.4269    2.7233    0.0000 H   0  0  0  0  0  0  0  0  0  0  0  0
   18.3028    3.6337    0.0000 H   0  0  0  0  0  0  0  0  0  0  0  0
   18.3989    1.7078    0.0000 H   0  0  0  0  0  0  0  0  0  0  0  0
   21.1146    5.1566    0.0000 H   0  0  0  0  0  0  0  0  0  0  0  0
   21.3943    3.5469    0.0000 H   0  0  0  0  0  0  0  0  0  0  0  0
   17.7564    6.0409    0.0000 H   0  0  0  0  0  0  0  0  0  0  0  0
   17.9541    4.2675    0.0000 H   0  0  0  0  0  0  0  0  0  0  0  0
   20.5371    7.8427    0.0000 H   0  0  0  0  0  0  0  0  0  0  0  0
   20.9495    6.1066    0.0000 H   0  0  0  0  0  0  0  0  0  0  0  0
   19.1252    9.2557    0.0000 H   0  0  0  0  0  0  0  0  0  0  0  0
   17.1106    7.7727    0.0000 H   0  0  0  0  0  0  0  0  0  0  0  0
   17.8655    3.0830    0.0000 H   0  0  0  0  0  0  0  0  0  0  0  0
   17.7527   -0.4840    0.0000 H   0  0  0  0  0  0  0  0  0  0  0  0
   17.1629   -1.8313    0.0000 H   0  0  0  0  0  0  0  0  0  0  0  0
   16.9626   -2.4231    0.0000 H   0  0  0  0  0  0  0  0  0  0  0  0
   16.2172   -3.2871    0.0000 H   0  0  0  0  0  0  0  0  0  0  0  0
   15.7805   -3.7110    0.0000 H   0  0  0  0  0  0  0  0  0  0  0  0
   14.5342   -4.4920    0.0000 H   0  0  0  0  0  0  0  0  0  0  0  0
   13.6009   -5.0977    0.0000 H   0  0  0  0  0  0  0  0  0  0  0  0
   18.0297   -1.5464    0.0000 H   0  0  0  0  0  0  0  0  0  0  0  0
   18.9279   -0.8968    0.0000 H   0  0  0  0  0  0  0  0  0  0  0  0
   18.8223    1.0287    0.0000 H   0  0  0  0  0  0  0  0  0  0  0  0
   17.1178    4.4917    0.0000 H   0  0  0  0  0  0  0  0  0  0  0  0
   16.3195    5.2669    0.0000 H   0  0  0  0  0  0  0  0  0  0  0  0
   14.8082    7.8178    0.0000 H   0  0  0  0  0  0  0  0  0  0  0  0
   13.6386    6.6770    0.0000 H   0  0  0  0  0  0  0  0  0  0  0  0
   16.5442    8.3908    0.0000 H   0  0  0  0  0  0  0  0  0  0  0  0
   12.5438    7.5445    0.0000 H   0  0  0  0  0  0  0  0  0  0  0  0
   11.2601    7.4379    0.0000 H   0  0  0  0  0  0  0  0  0  0  0  0
    8.3233    7.8468    0.0000 H   0  0  0  0  0  0  0  0  0  0  0  0
    8.4860    6.2211    0.0000 H   0  0  0  0  0  0  0  0  0  0  0  0
   12.7096    7.9518    0.0000 H   0  0  0  0  0  0  0  0  0  0  0  0
   13.4742   10.6841    0.0000 H   0  0  0  0  0  0  0  0  0  0  0  0
   11.4390   12.8883    0.0000 H   0  0  0  0  0  0  0  0  0  0  0  0
    8.5126   12.2279    0.0000 H   0  0  0  0  0  0  0  0  0  0  0  0
    7.6213    9.3634    0.0000 H   0  0  0  0  0  0  0  0  0  0  0  0
    7.1252    5.9059    0.0000 H   0  0  0  0  0  0  0  0  0  0  0  0
    6.4081    4.8359    0.0000 H   0  0  0  0  0  0  0  0  0  0  0  0
    4.2574    2.7948    0.0000 H   0  0  0  0  0  0  0  0  0  0  0  0
    5.6299    1.9084    0.0000 H   0  0  0  0  0  0  0  0  0  0  0  0
    6.9101    6.2896    0.0000 H   0  0  0  0  0  0  0  0  0  0  0  0
    5.2506    8.5909    0.0000 H   0  0  0  0  0  0  0  0  0  0  0  0
    2.2584    8.3741    0.0000 H   0  0  0  0  0  0  0  0  0  0  0  0
    0.9502    5.6744    0.0000 H   0  0  0  0  0  0  0  0  0  0  0  0
    2.6340    3.1915    0.0000 H   0  0  0  0  0  0  0  0  0  0  0  0
    5.0344    0.4649    0.0000 H   0  0  0  0  0  0  0  0  0  0  0  0
    7.2273   -3.5581    0.0000 H   0  0  0  0  0  0  0  0  0  0  0  0
    6.2726   -2.6635    0.0000 H   0  0  0  0  0  0  0  0  0  0  0  0
    8.6087   -4.6095    0.0000 H   0  0  0  0  0  0  0  0  0  0  0  0
    7.6155   -4.0476    0.0000 H   0  0  0  0  0  0  0  0  0  0  0  0
   10.5995   -5.1758    0.0000 H   0  0  0  0  0  0  0  0  0  0  0  0
    9.1629   -4.8611    0.0000 H   0  0  0  0  0  0  0  0  0  0  0  0
   11.6825   -5.4312    0.0000 H   0  0  0  0  0  0  0  0  0  0  0  0
    4.2016   -1.4585    0.0000 H   0  0  0  0  0  0  0  0  0  0  0  0
    4.2216    0.3258    0.0000 H   0  0  0  0  0  0  0  0  0  0  0  0
    5.5777    0.9115    0.0000 H   0  0  0  0  0  0  0  0  0  0  0  0
    3.7428   -0.7015    0.0000 H   0  0  0  0  0  0  0  0  0  0  0  0
    5.0681   -3.8230    0.0000 H   0  0  0  0  0  0  0  0  0  0  0  0
    3.6552   -6.1195    0.0000 H   0  0  0  0  0  0  0  0  0  0  0  0
    4.8242   -4.7712    0.0000 H   0  0  0  0  0  0  0  0  0  0  0  0
    1.0541   -3.8085    0.0000 H   0  0  0  0  0  0  0  0  0  0  0  0
    0.2055   -7.2513    0.0000 H   0  0  0  0  0  0  0  0  0  0  0  0
    1.6557   -8.0038    0.0000 H   0  0  0  0  0  0  0  0  0  0  0  0
    2.9803   -6.8081    0.0000 H   0  0  0  0  0  0  0  0  0  0  0  0
   -0.5675   -3.7863    0.0000 H   0  0  0  0  0  0  0  0  0  0  0  0
   -0.8164   -5.8363    0.0000 H   0  0  0  0  0  0  0  0  0  0  0  0
    0.3508   -6.4420    0.0000 H   0  0  0  0  0  0  0  0  0  0  0  0
    1.6597   -5.7938    0.0000 H   0  0  0  0  0  0  0  0  0  0  0  0
    0.4113   -2.8122    0.0000 H   0  0  0  0  0  0  0  0  0  0  0  0
   -2.9980   -3.4725    0.0000 H   0  0  0  0  0  0  0  0  0  0  0  0
   -2.3720   -4.8105    0.0000 H   0  0  0  0  0  0  0  0  0  0  0  0
   -1.2744   -0.6426    0.0000 H   0  0  0  0  0  0  0  0  0  0  0  0
   -0.1497   -2.0279    0.0000 H   0  0  0  0  0  0  0  0  0  0  0  0
   -4.5094   -1.3593    0.0000 H   0  0  0  0  0  0  0  0  0  0  0  0
   -3.5619   -2.8714    0.0000 H   0  0  0  0  0  0  0  0  0  0  0  0
   -1.9395    0.8905    0.0000 H   0  0  0  0  0  0  0  0  0  0  0  0
   -6.0367    2.7513    0.0000 H   0  0  0  0  0  0  0  0  0  0  0  0
   -7.1111    0.3858    0.0000 H   0  0  0  0  0  0  0  0  0  0  0  0
   -5.5997   -1.7274    0.0000 H   0  0  0  0  0  0  0  0  0  0  0  0
   -3.2879   -4.0660    0.0000 H   0  0  0  0  0  0  0  0  0  0  0  0
   -1.9625   -7.1876    0.0000 H   0  0  0  0  0  0  0  0  0  0  0  0
   -3.5563   -9.5129    0.0000 H   0  0  0  0  0  0  0  0  0  0  0  0
   -2.2064   -8.1358    0.0000 H   0  0  0  0  0  0  0  0  0  0  0  0
   -7.6539   -7.4763    0.0000 H   0  0  0  0  0  0  0  0  0  0  0  0
   -5.3709   -9.1584    0.0000 H   0  0  0  0  0  0  0  0  0  0  0  0
   -6.7936   -6.1204    0.0000 H   0  0  0  0  0  0  0  0  0  0  0  0
   -9.6043   -5.9028    0.0000 H   0  0  0  0  0  0  0  0  0  0  0  0
   -7.6851   -5.7155    0.0000 H   0  0  0  0  0  0  0  0  0  0  0  0
  -10.6011   -9.0627    0.0000 H   0  0  0  0  0  0  0  0  0  0  0  0
   -9.3004   -9.2555    0.0000 H   0  0  0  0  0  0  0  0  0  0  0  0
  -13.7047   -7.4575    0.0000 H   0  0  0  0  0  0  0  0  0  0  0  0
  -12.8001   -9.5483    0.0000 H   0  0  0  0  0  0  0  0  0  0  0  0
  -10.4665   -7.5384    0.0000 H   0  0  0  0  0  0  0  0  0  0  0  0
   -8.9932  -10.5522    0.0000 H   0  0  0  0  0  0  0  0  0  0  0  0
   -9.2341  -11.3172    0.0000 H   0  0  0  0  0  0  0  0  0  0  0  0
  -12.6833  -13.1690    0.0000 H   0  0  0  0  0  0  0  0  0  0  0  0
  -13.7341  -12.0809    0.0000 H   0  0  0  0  0  0  0  0  0  0  0  0
  -13.3216  -10.7897    0.0000 H   0  0  0  0  0  0  0  0  0  0  0  0
  -10.7807  -14.3649    0.0000 H   0  0  0  0  0  0  0  0  0  0  0  0
  -12.0245  -13.3055    0.0000 H   0  0  0  0  0  0  0  0  0  0  0  0
   -9.0755  -14.9907    0.0000 H   0  0  0  0  0  0  0  0  0  0  0  0
   -7.7256  -13.6135    0.0000 H   0  0  0  0  0  0  0  0  0  0  0  0
   -8.6732  -12.1015    0.0000 H   0  0  0  0  0  0  0  0  0  0  0  0
  -10.7304  -12.1659    0.0000 H   0  0  0  0  0  0  0  0  0  0  0  0
  -11.5761  -13.8309    0.0000 H   0  0  0  0  0  0  0  0  0  0  0  0
  -12.3548  -14.4681    0.0000 H   0  0  0  0  0  0  0  0  0  0  0  0
  -14.3615  -14.5233    0.0000 H   0  0  0  0  0  0  0  0  0  0  0  0
  -15.3401  -13.8525    0.0000 H   0  0  0  0  0  0  0  0  0  0  0  0
  -16.0720  -12.1344    0.0000 H   0  0  0  0  0  0  0  0  0  0  0  0
  -14.0861   -9.5991    0.0000 H   0  0  0  0  0  0  0  0  0  0  0  0
  -15.2069   -8.2680    0.0000 H   0  0  0  0  0  0  0  0  0  0  0  0
  -17.6660  -10.6383    0.0000 H   0  0  0  0  0  0  0  0  0  0  0  0
  -20.4386  -10.1282    0.0000 H   0  0  0  0  0  0  0  0  0  0  0  0
  -18.6314  -10.8012    0.0000 H   0  0  0  0  0  0  0  0  0  0  0  0
  -20.5921   -6.8183    0.0000 H   0  0  0  0  0  0  0  0  0  0  0  0
  -19.2854   -6.9654    0.0000 H   0  0  0  0  0  0  0  0  0  0  0  0
  -23.5713  -10.1363    0.0000 H   0  0  0  0  0  0  0  0  0  0  0  0
  -20.8527   -8.3262    0.0000 H   0  0  0  0  0  0  0  0  0  0  0  0
  -18.6367   -5.9730    0.0000 H   0  0  0  0  0  0  0  0  0  0  0  0
  -20.6265   -3.1270    0.0000 H   0  0  0  0  0  0  0  0  0  0  0  0
  -21.6195   -4.4245    0.0000 H   0  0  0  0  0  0  0  0  0  0  0  0
  -18.1484   -5.1415    0.0000 H   0  0  0  0  0  0  0  0  0  0  0  0
  -17.6037   -1.4062    0.0000 H   0  0  0  0  0  0  0  0  0  0  0  0
  -19.3108   -0.8867    0.0000 H   0  0  0  0  0  0  0  0  0  0  0  0
  -20.3068   -2.3674    0.0000 H   0  0  0  0  0  0  0  0  0  0  0  0
  -16.6494   -2.2192    0.0000 H   0  0  0  0  0  0  0  0  0  0  0  0
  -15.8651   -3.8220    0.0000 H   0  0  0  0  0  0  0  0  0  0  0  0
  -17.3515   -5.0505    0.0000 H   0  0  0  0  0  0  0  0  0  0  0  0
  -21.2867   -3.1036    0.0000 H   0  0  0  0  0  0  0  0  0  0  0  0
  -23.5993   -5.5840    0.0000 H   0  0  0  0  0  0  0  0  0  0  0  0
  -26.3719   -5.0739    0.0000 H   0  0  0  0  0  0  0  0  0  0  0  0
  -24.5647   -5.7469    0.0000 H   0  0  0  0  0  0  0  0  0  0  0  0
  -26.5254   -1.7640    0.0000 H   0  0  0  0  0  0  0  0  0  0  0  0
  -25.2187   -1.9111    0.0000 H   0  0  0  0  0  0  0  0  0  0  0  0
  -29.5046   -5.0820    0.0000 H   0  0  0  0  0  0  0  0  0  0  0  0
  -26.7860   -3.2719    0.0000 H   0  0  0  0  0  0  0  0  0  0  0  0
  -24.5893   -0.7365    0.0000 H   0  0  0  0  0  0  0  0  0  0  0  0
  -26.3838    1.9780    0.0000 H   0  0  0  0  0  0  0  0  0  0  0  0
  -27.5528    0.6298    0.0000 H   0  0  0  0  0  0  0  0  0  0  0  0
  -23.4370    3.4946    0.0000 H   0  0  0  0  0  0  0  0  0  0  0  0
  -26.0350    3.5139    0.0000 H   0  0  0  0  0  0  0  0  0  0  0  0
  -27.2200    1.9507    0.0000 H   0  0  0  0  0  0  0  0  0  0  0  0
  -29.5326   -0.5297    0.0000 H   0  0  0  0  0  0  0  0  0  0  0  0
  -32.3051   -0.0196    0.0000 H   0  0  0  0  0  0  0  0  0  0  0  0
  -30.4980   -0.6926    0.0000 H   0  0  0  0  0  0  0  0  0  0  0  0
  -34.5247    2.6586    0.0000 H   0  0  0  0  0  0  0  0  0  0  0  0
  -33.9588    0.2218    0.0000 H   0  0  0  0  0  0  0  0  0  0  0  0
  -32.7193    1.7824    0.0000 H   0  0  0  0  0  0  0  0  0  0  0  0
  -30.5226    4.3178    0.0000 H   0  0  0  0  0  0  0  0  0  0  0  0
  -31.4671    6.9740    0.0000 H   0  0  0  0  0  0  0  0  0  0  0  0
  -30.5154    5.2968    0.0000 H   0  0  0  0  0  0  0  0  0  0  0  0
  -34.7592    6.5994    0.0000 H   0  0  0  0  0  0  0  0  0  0  0  0
  -34.4063    5.3327    0.0000 H   0  0  0  0  0  0  0  0  0  0  0  0
  -31.9571   10.0682    0.0000 H   0  0  0  0  0  0  0  0  0  0  0  0
  -33.3120    7.0964    0.0000 H   0  0  0  0  0  0  0  0  0  0  0  0
  -35.4659    4.5246    0.0000 H   0  0  0  0  0  0  0  0  0  0  0  0
  -38.1385    4.8812    0.0000 H   0  0  0  0  0  0  0  0  0  0  0  0
  -36.4313    4.3618    0.0000 H   0  0  0  0  0  0  0  0  0  0  0  0
  -38.2160    8.3953    0.0000 H   0  0  0  0  0  0  0  0  0  0  0  0
  -37.0853    8.1975    0.0000 H   0  0  0  0  0  0  0  0  0  0  0  0
  -40.6732    5.9415    0.0000 H   0  0  0  0  0  0  0  0  0  0  0  0
  -39.0421    5.2178    0.0000 H   0  0  0  0  0  0  0  0  0  0  0  0
  -40.8267    9.2513    0.0000 H   0  0  0  0  0  0  0  0  0  0  0  0
  -39.1196    8.7318    0.0000 H   0  0  0  0  0  0  0  0  0  0  0  0
  -42.7589    8.7447    0.0000 H   0  0  0  0  0  0  0  0  0  0  0  0
  -42.3268    6.1828    0.0000 H   0  0  0  0  0  0  0  0  0  0  0  0
  -38.6526    6.8368    0.0000 H   0  0  0  0  0  0  0  0  0  0  0  0
  -36.4559    9.3721    0.0000 H   0  0  0  0  0  0  0  0  0  0  0  0
  -36.6193   11.3629    0.0000 H   0  0  0  0  0  0  0  0  0  0  0  0
  -38.0695   12.1155    0.0000 H   0  0  0  0  0  0  0  0  0  0  0  0
  -39.4194   10.7384    0.0000 H   0  0  0  0  0  0  0  0  0  0  0  0
  -41.6230    9.7563    0.0000 H   0  0  0  0  0  0  0  0  0  0  0  0
  -42.8471   11.3473    0.0000 H   0  0  0  0  0  0  0  0  0  0  0  0
  -42.8797   12.5333    0.0000 H   0  0  0  0  0  0  0  0  0  0  0  0
  -41.7448   14.1891    0.0000 H   0  0  0  0  0  0  0  0  0  0  0  0
  -40.6270   14.5866    0.0000 H   0  0  0  0  0  0  0  0  0  0  0  0
  -38.8068   14.1688    0.0000 H   0  0  0  0  0  0  0  0  0  0  0  0
  -37.8129   11.2184    0.0000 H   0  0  0  0  0  0  0  0  0  0  0  0
  -37.2434   15.5706    0.0000 H   0  0  0  0  0  0  0  0  0  0  0  0
  1  2  1  0
  2  3  1  0
  3  4  2  0
  4  5  1  0
  5  6  2  0
  6  7  1  0
  7  8  2  0
  7  9  1  0
  9 10  1  0
 10 11  1  0
 11 12  2  0
  9 13  1  0
 13 14  1  0
 14 15  2  0
 15 16  1  0
 16 17  2  0
 17 18  1  0
 16 19  1  0
 14 20  1  0
 20 21  1  0
 21 22  2  0
 22 23  1  0
 23 24  2  0
 24 25  1  0
 25 26  2  0
 25 27  1  0
  1 28  2  0
  1 29  1  0
 29 30  1  0
 30 31  1  0
 31 32  1  0
 32 33  2  0
 32 34  1  0
 34 35  1  0
 35 36  1  0
 36 37  1  0
 37 38  1  0
 37 39  2  0
 35 40  1  0
 40 41  2  0
 40 42  1  0
 42 43  1  0
 43 44  1  0
 44 45  1  0
 45 46  1  0
 46 47  2  0
 46 48  1  0
 43 49  1  0
 49 50  2  0
 49 51  1  0
 51 52  1  0
 52 53  1  0
 53 54  1  0
 54 55  1  0
 54 56  1  0
 52 57  1  0
 57 58  2  0
 57 59  1  0
 59 60  1  0
 60 61  1  0
 61 62  1  0
 62 63  1  0
 63 64  1  0
 64 65  1  0
 60 66  1  0
 66 67  2  0
 66 68  1  0
 69 68  1  1
 69 70  1  0
 70 71  1  0
 71 72  1  0
 72 73  1  0
 69 74  1  0
 69 75  1  0
 75 76  2  0
 75 77  1  0
 77 78  1  0
 78 79  1  0
 79 80  1  0
 78 81  1  0
 81 82  2  0
 81 83  1  0
 83 84  1  0
 84 85  1  0
 85 86  1  0
 86 87  2  0
 87 88  1  0
 88 89  2  0
 89 90  1  0
 90 91  2  0
 84 92  1  0
 92 93  2  0
 92 94  1  0
 94 95  1  0
 95 96  1  0
 96 97  1  0
 97 98  2  0
 98 99  1  0
 99100  2  0
100101  1  0
101102  2  0
 95103  1  0
103104  2  0
103105  1  0
105106  1  0
106107  1  0
107108  1  0
108109  1  0
109110  1  0
106111  1  0
106112  1  1
112113  2  0
112114  1  0
114115  1  0
115116  1  0
116117  1  0
117118  1  0
117119  1  0
115120  1  0
120121  2  0
120122  1  0
122123  1  0
123124  1  0
124125  1  0
125126  1  0
126127  1  0
127128  1  0
128129  2  3
128130  1  0
123131  1  0
131132  2  0
131133  1  0
133134  1  0
134135  1  0
135136  1  0
136137  2  0
136138  1  0
134139  1  0
139140  2  0
139141  1  0
141142  1  0
142143  1  0
143144  1  0
144145  1  0
145146  1  0
145147  2  0
142148  1  0
148149  2  0
148150  1  0
150151  1  0
151152  1  0
152153  1  0
152154  1  0
154155  1  0
151156  1  0
156157  2  0
156158  1  0
158159  1  0
159160  1  0
160161  1  0
161162  1  0
162163  1  0
163164  2  0
163165  1  0
165166  1  0
166167  1  0
167168  1  0
168169  1  0
169170  2  0
169171  1  0
166172  1  0
172173  2  0
172174  1  0
174175  1  0
175176  1  0
176177  1  0
177178  1  0
177179  1  0
175180  1  0
180181  2  0
180182  1  0
182183  1  0
183184  1  0
184185  1  0
185186  1  0
186187  2  0
186188  1  0
183189  1  0
189190  2  0
189191  1  0
191192  1  0
192193  1  0
193194  1  0
194195  1  0
194196  2  0
192197  1  0
197198  2  0
197199  1  0
199200  1  0
200201  1  0
201202  1  0
202203  1  0
202204  2  0
200205  1  0
205206  2  0
205207  1  0
207208  1  0
208209  1  0
209210  1  0
210211  1  0
211212  2  0
211213  1  0
208214  1  0
214215  2  0
214216  1  0
216217  1  0
217218  1  0
218219  1  0
219220  1  0
220221  1  0
221222  1  0
217223  1  0
223224  2  0
223225  1  0
225226  1  0
226227  1  0
226228  1  0
228229  2  0
228230  1  0
230231  1  0
231232  1  0
232233  1  0
233234  1  0
234235  1  0
235236  2  0
235237  1  0
  8  3  1  0
 91 86  1  0
102 97  1  0
162158  1  0
234230  1  0
 11  6  1  0
 73110  2  0
 18 13  2  0
 22  9  1  0
 26 21  1  0
  2238  1  0
  4239  1  0
  5240  1  0
  8241  1  0
 15242  1  0
 17243  1  0
 18244  1  0
 19245  1  0
 23246  1  0
 24247  1  0
 26248  1  0
 27249  1  0
 29250  1  0
 30251  1  0
 30252  1  0
 31253  1  0
 31254  1  0
 34255  1  0
 35256  1  1
 36257  1  0
 36258  1  0
 38259  1  0
 38260  1  0
 42261  1  0
 43262  1  6
 44263  1  0
 44264  1  0
 45265  1  0
 45266  1  0
 48267  1  0
 51268  1  0
 52269  1  1
 53270  1  0
 53271  1  0
 54272  1  0
 55273  1  0
 55274  1  0
 55275  1  0
 56276  1  0
 56277  1  0
 56278  1  0
 59279  1  0
 60280  1  6
 61281  1  0
 61282  1  0
 62283  1  0
 62284  1  0
 63285  1  0
 63286  1  0
 64287  1  0
 64288  1  0
 65289  1  0
 65290  1  0
 68291  1  0
 70292  1  0
 70293  1  0
 71294  1  0
 71295  1  0
 72296  1  0
 72297  1  0
 73298  1  0
 74299  1  0
 74300  1  0
 74301  1  0
 77302  1  0
 78303  1  6
 79304  1  0
 79305  1  0
 80306  1  0
 83307  1  0
 84308  1  6
 85309  1  0
 85310  1  0
 87311  1  0
 88312  1  0
 89313  1  0
 90314  1  0
 91315  1  0
 94316  1  0
 95317  1  6
 96318  1  0
 96319  1  0
 98320  1  0
 99321  1  0
100322  1  0
101323  1  0
102324  1  0
105325  1  0
107326  1  0
107327  1  0
108328  1  0
108329  1  0
109330  1  0
109331  1  0
110332  1  0
111333  1  0
111334  1  0
111335  1  0
114336  1  0
115337  1  1
116338  1  0
116339  1  0
117340  1  0
118341  1  0
118342  1  0
118343  1  0
119344  1  0
119345  1  0
119346  1  0
122347  1  0
123348  1  6
124349  1  0
124350  1  0
125351  1  0
125352  1  0
126353  1  0
126354  1  0
127355  1  0
129356  1  0
130357  1  0
130358  1  0
133359  1  0
134360  1  1
135361  1  0
135362  1  0
138363  1  0
141364  1  0
142365  1  6
143366  1  0
143367  1  0
144368  1  0
144369  1  0
146370  1  0
146371  1  0
150372  1  0
151373  1  1
152374  1  1
153375  1  0
153376  1  0
153377  1  0
154378  1  0
154379  1  0
155380  1  0
155381  1  0
155382  1  0
159383  1  0
159384  1  0
160385  1  0
160386  1  0
161387  1  0
161388  1  0
162389  1  0
165390  1  0
166391  1  1
167392  1  0
167393  1  0
168394  1  0
168395  1  0
171396  1  0
174397  1  0
175398  1  6
176399  1  0
176400  1  0
177401  1  0
178402  1  0
178403  1  0
178404  1  0
179405  1  0
179406  1  0
179407  1  0
182408  1  0
183409  1  1
184410  1  0
184411  1  0
185412  1  0
185413  1  0
188414  1  0
191415  1  0
192416  1  6
193417  1  0
193418  1  0
195419  1  0
195420  1  0
199421  1  0
200422  1  1
201423  1  0
201424  1  0
203425  1  0
203426  1  0
207427  1  0
208428  1  6
209429  1  0
209430  1  0
210431  1  0
210432  1  0
213433  1  0
216434  1  0
217435  1  1
218436  1  0
218437  1  0
219438  1  0
219439  1  0
220440  1  0
220441  1  0
221442  1  0
221443  1  0
222444  1  0
222445  1  0
225446  1  0
226447  1  6
227448  1  0
227449  1  0
227450  1  0
231451  1  0
231452  1  0
232453  1  0
232454  1  0
233455  1  0
233456  1  0
234457  1  0
237458  1  0
M  END
