
     RDKit          2D

350357  0  0  0  0  0  0  0  0999 V2000
  -28.8677   -0.1346    0.0000 C   0  0  0  0  0  0  0  0  0  0  0  0
  -30.1168   -0.9651    0.0000 N   0  0  0  0  0  0  0  0  0  0  0  0
  -31.4606   -0.2986    0.0000 C   0  0  0  0  0  0  0  0  0  0  0  0
  -31.5553    1.1985    0.0000 C   0  0  0  0  0  0  0  0  0  0  0  0
  -32.8991    1.8650    0.0000 C   0  0  0  0  0  0  0  0  0  0  0  0
  -34.1482    1.0345    0.0000 C   0  0  0  0  0  0  0  0  0  0  0  0
  -34.0535   -0.4625    0.0000 C   0  0  0  0  0  0  0  0  0  0  0  0
  -32.7097   -1.1290    0.0000 C   0  0  0  0  0  0  0  0  0  0  0  0
  -35.4480   -1.0152    0.0000 C   0  0  0  0  0  0  0  0  0  0  0  0
  -36.4045    0.1403    0.0000 O   0  0  0  0  0  0  0  0  0  0  0  0
  -35.6012    1.4070    0.0000 C   0  0  0  0  0  0  0  0  0  0  0  0
  -36.1538    2.8015    0.0000 O   0  0  0  0  0  0  0  0  0  0  0  0
  -36.8926   -1.4190    0.0000 C   0  0  0  0  0  0  0  0  0  0  0  0
  -37.2651   -2.8720    0.0000 C   0  0  0  0  0  0  0  0  0  0  0  0
  -38.7098   -3.2759    0.0000 C   0  0  0  0  0  0  0  0  0  0  0  0
  -39.7818   -2.2267    0.0000 C   0  0  0  0  0  0  0  0  0  0  0  0
  -39.4093   -0.7737    0.0000 C   0  0  0  0  0  0  0  0  0  0  0  0
  -37.9646   -0.3699    0.0000 C   0  0  0  0  0  0  0  0  0  0  0  0
  -41.2264   -2.6306    0.0000 O   0  0  0  0  0  0  0  0  0  0  0  0
  -36.1931   -3.9212    0.0000 O   0  0  0  0  0  0  0  0  0  0  0  0
  -34.7485   -3.5173    0.0000 C   0  0  0  0  0  0  0  0  0  0  0  0
  -34.3759   -2.0643    0.0000 C   0  0  0  0  0  0  0  0  0  0  0  0
  -33.1052   -2.3385    0.0000 C   0  0  0  0  0  0  0  0  0  0  0  0
  -32.5334   -2.8981    0.0000 C   0  0  0  0  0  0  0  0  0  0  0  0
  -32.7321   -3.6730    0.0000 C   0  0  0  0  0  0  0  0  0  0  0  0
  -33.5026   -3.8884    0.0000 C   0  0  0  0  0  0  0  0  0  0  0  0
  -31.1598   -5.2118    0.0000 O   0  0  0  0  0  0  0  0  0  0  0  0
  -28.9624    1.3624    0.0000 S   0  0  0  0  0  0  0  0  0  0  0  0
  -27.5239   -0.8011    0.0000 N   0  0  0  0  0  0  0  0  0  0  0  0
  -26.2748    0.0294    0.0000 C   0  0  0  0  0  0  0  0  0  0  0  0
  -24.9310   -0.6371    0.0000 C   0  0  0  0  0  0  0  0  0  0  0  0
  -23.6819    0.1934    0.0000 C   0  0  0  0  0  0  0  0  0  0  0  0
  -23.7766    1.6904    0.0000 O   0  0  0  0  0  0  0  0  0  0  0  0
  -22.3381   -0.4731    0.0000 N   0  0  0  0  0  0  0  0  0  0  0  0
  -21.0890    0.3574    0.0000 C   0  0  0  0  0  0  0  0  0  0  0  0
  -20.1993    1.5650    0.0000 C   0  0  0  0  0  0  0  0  0  0  0  0
  -18.7086    1.3983    0.0000 C   0  0  0  0  0  0  0  0  0  0  0  0
  -17.8188    2.6059    0.0000 C   0  0  0  0  0  0  0  0  0  0  0  0
  -16.6039    2.6191    0.0000 O   0  0  0  0  0  0  0  0  0  0  0  0
  -18.4198    3.9803    0.0000 O   0  0  0  0  0  0  0  0  0  0  0  0
  -19.7452   -0.3091    0.0000 C   0  0  0  0  0  0  0  0  0  0  0  0
  -19.6506   -1.8061    0.0000 O   0  0  0  0  0  0  0  0  0  0  0  0
  -18.4961    0.5214    0.0000 N   0  0  0  0  0  0  0  0  0  0  0  0
  -17.1523   -0.1452    0.0000 C   0  0  0  0  0  0  0  0  0  0  0  0
  -16.1175   -1.2311    0.0000 C   0  0  0  0  0  0  0  0  0  0  0  0
  -16.5406   -2.6702    0.0000 C   0  0  0  0  0  0  0  0  0  0  0  0
  -15.5058   -3.7561    0.0000 C   0  0  0  0  0  0  0  0  0  0  0  0
  -15.9288   -5.1952    0.0000 N   0  0  0  0  0  0  0  0  0  0  0  0
  -14.8941   -6.2811    0.0000 C   0  0  0  0  0  0  0  0  0  0  0  0
  -15.3171   -7.7202    0.0000 N   0  0  0  0  0  0  0  0  0  0  0  0
  -13.4362   -5.9279    0.0000 N   0  0  0  0  0  0  0  0  0  0  0  0
  -15.9032    0.6853    0.0000 C   0  0  0  0  0  0  0  0  0  0  0  0
  -15.8315    1.8982    0.0000 O   0  0  0  0  0  0  0  0  0  0  0  0
  -14.5594    0.0188    0.0000 N   0  0  0  0  0  0  0  0  0  0  0  0
  -13.3103    0.8493    0.0000 C   0  0  0  0  0  0  0  0  0  0  0  0
  -12.4206    2.0570    0.0000 C   0  0  0  0  0  0  0  0  0  0  0  0
  -10.9299    1.8902    0.0000 C   0  0  0  0  0  0  0  0  0  0  0  0
  -10.0402    3.0979    0.0000 C   0  0  0  0  0  0  0  0  0  0  0  0
   -9.5861    1.2237    0.0000 C   0  0  0  0  0  0  0  0  0  0  0  0
  -11.9665    0.1828    0.0000 C   0  0  0  0  0  0  0  0  0  0  0  0
  -11.8719   -1.3142    0.0000 O   0  0  0  0  0  0  0  0  0  0  0  0
  -10.7174    1.0133    0.0000 N   0  0  0  0  0  0  0  0  0  0  0  0
   -9.3736    0.3468    0.0000 C   0  0  0  0  0  0  0  0  0  0  0  0
   -8.3389   -0.7391    0.0000 C   0  0  0  0  0  0  0  0  0  0  0  0
   -8.7619   -2.1782    0.0000 C   0  0  0  0  0  0  0  0  0  0  0  0
   -7.7271   -3.2642    0.0000 C   0  0  0  0  0  0  0  0  0  0  0  0
   -8.1502   -4.7033    0.0000 N   0  0  0  0  0  0  0  0  0  0  0  0
   -7.1154   -5.7892    0.0000 C   0  0  0  0  0  0  0  0  0  0  0  0
   -7.5384   -7.2283    0.0000 N   0  0  0  0  0  0  0  0  0  0  0  0
   -5.6575   -5.4360    0.0000 N   0  0  0  0  0  0  0  0  0  0  0  0
   -8.1245    1.1773    0.0000 C   0  0  0  0  0  0  0  0  0  0  0  0
   -8.0360    2.6747    0.0000 O   0  0  0  0  0  0  0  0  0  0  0  0
   -6.7807    0.5108    0.0000 N   0  0  0  0  0  0  0  0  0  0  0  0
   -5.5316    1.3413    0.0000 C   0  0  0  0  0  0  0  0  0  0  0  0
   -4.6419    2.5489    0.0000 C   0  0  0  0  0  0  0  0  0  0  0  0
   -3.1512    2.3822    0.0000 C   0  0  0  0  0  0  0  0  0  0  0  0
   -2.2615    3.5898    0.0000 C   0  0  0  0  0  0  0  0  0  0  0  0
   -0.7708    3.4231    0.0000 N   0  0  0  0  0  0  0  0  0  0  0  0
    0.1190    4.6307    0.0000 C   0  0  0  0  0  0  0  0  0  0  0  0
    1.6097    4.4640    0.0000 N   0  0  0  0  0  0  0  0  0  0  0  0
   -0.4820    6.0051    0.0000 N   0  0  0  0  0  0  0  0  0  0  0  0
   -4.1879    0.6748    0.0000 C   0  0  0  0  0  0  0  0  0  0  0  0
   -4.0932   -0.8223    0.0000 O   0  0  0  0  0  0  0  0  0  0  0  0
   -2.9387    1.5052    0.0000 N   0  0  0  0  0  0  0  0  0  0  0  0
   -1.5950    0.8387    0.0000 C   0  0  0  0  0  0  0  0  0  0  0  0
   -0.5602   -0.2472    0.0000 C   0  0  0  0  0  0  0  0  0  0  0  0
   -0.9832   -1.6863    0.0000 C   0  0  0  0  0  0  0  0  0  0  0  0
    0.0516   -2.7722    0.0000 C   0  0  0  0  0  0  0  0  0  0  0  0
   -0.3715   -4.2113    0.0000 N   0  0  0  0  0  0  0  0  0  0  0  0
    0.6633   -5.2972    0.0000 C   0  0  0  0  0  0  0  0  0  0  0  0
    0.2403   -6.7364    0.0000 N   0  0  0  0  0  0  0  0  0  0  0  0
    2.1211   -4.9441    0.0000 N   0  0  0  0  0  0  0  0  0  0  0  0
   -0.3458    1.6692    0.0000 C   0  0  0  0  0  0  0  0  0  0  0  0
   -0.1487    2.7448    0.0000 O   0  0  0  0  0  0  0  0  0  0  0  0
    0.9979    1.0027    0.0000 N   0  0  0  0  0  0  0  0  0  0  0  0
    2.2471    1.8332    0.0000 C   0  0  0  0  0  0  0  0  0  0  0  0
    3.1368    3.0408    0.0000 C   0  0  0  0  0  0  0  0  0  0  0  0
    4.6367    3.0571    0.0000 C   0  0  0  0  0  0  0  0  0  0  0  0
    3.5598    4.4800    0.0000 C   0  0  0  0  0  0  0  0  0  0  0  0
    4.9637    5.0082    0.0000 C   0  0  0  0  0  0  0  0  0  0  0  0
    3.5908    1.1667    0.0000 C   0  0  0  0  0  0  0  0  0  0  0  0
    3.5023   -0.3307    0.0000 O   0  0  0  0  0  0  0  0  0  0  0  0
    4.8399    1.9972    0.0000 N   0  0  0  0  0  0  0  0  0  0  0  0
    6.1837    1.3307    0.0000 C   0  0  0  0  0  0  0  0  0  0  0  0
    6.5732   -0.1179    0.0000 C   0  0  0  0  0  0  0  0  0  0  0  0
    7.3723   -1.3873    0.0000 C   0  0  0  0  0  0  0  0  0  0  0  0
    8.5100   -2.3648    0.0000 C   0  0  0  0  0  0  0  0  0  0  0  0
    9.8854   -2.9635    0.0000 C   0  0  0  0  0  0  0  0  0  0  0  0
    4.9163    0.5285    0.0000 C   0  0  0  0  0  0  0  0  0  0  0  0
    6.2386    2.8297    0.0000 C   0  0  0  0  0  0  0  0  0  0  0  0
    5.4790    3.0716    0.0000 O   0  0  0  0  0  0  0  0  0  0  0  0
    6.7328    4.2459    0.0000 N   0  0  0  0  0  0  0  0  0  0  0  0
    7.6226    5.4535    0.0000 C   0  0  0  0  0  0  0  0  0  0  0  0
    7.3058    6.9197    0.0000 C   0  0  0  0  0  0  0  0  0  0  0  0
    8.4172    7.9271    0.0000 C   0  0  0  0  0  0  0  0  0  0  0  0
    8.1005    9.3933    0.0000 C   0  0  0  0  0  0  0  0  0  0  0  0
    9.7267    8.6587    0.0000 C   0  0  0  0  0  0  0  0  0  0  0  0
    8.8287    6.3453    0.0000 C   0  0  0  0  0  0  0  0  0  0  0  0
    8.4684    7.8013    0.0000 O   0  0  0  0  0  0  0  0  0  0  0  0
   10.2441    6.8419    0.0000 N   0  0  0  0  0  0  0  0  0  0  0  0
   11.7430    6.8992    0.0000 C   0  0  0  0  0  0  0  0  0  0  0  0
   12.6919    8.0610    0.0000 C   0  0  0  0  0  0  0  0  0  0  0  0
   12.1602    9.4636    0.0000 S   0  0  0  0  0  0  0  0  0  0  0  0
   13.1923    6.5121    0.0000 C   0  0  0  0  0  0  0  0  0  0  0  0
   13.7910    7.8875    0.0000 O   0  0  0  0  0  0  0  0  0  0  0  0
   14.4630    5.7151    0.0000 N   0  0  0  0  0  0  0  0  0  0  0  0
   15.4424    4.5790    0.0000 C   0  0  0  0  0  0  0  0  0  0  0  0
   16.9423    4.5615    0.0000 C   0  0  0  0  0  0  0  0  0  0  0  0
   17.7073    5.8518    0.0000 C   0  0  0  0  0  0  0  0  0  0  0  0
   19.2072    5.8343    0.0000 C   0  0  0  0  0  0  0  0  0  0  0  0
   19.9723    7.1245    0.0000 N   0  0  0  0  0  0  0  0  0  0  0  0
   21.4722    7.1070    0.0000 C   0  0  0  0  0  0  0  0  0  0  0  0
   22.2373    8.3973    0.0000 N   0  0  0  0  0  0  0  0  0  0  0  0
   22.2070    5.7994    0.0000 N   0  0  0  0  0  0  0  0  0  0  0  0
   16.0433    3.2046    0.0000 C   0  0  0  0  0  0  0  0  0  0  0  0
   17.4919    3.5941    0.0000 O   0  0  0  0  0  0  0  0  0  0  0  0
   16.2125    1.7142    0.0000 N   0  0  0  0  0  0  0  0  0  0  0  0
   15.9349    0.2401    0.0000 C   0  0  0  0  0  0  0  0  0  0  0  0
   15.2351   -1.0866    0.0000 C   0  0  0  0  0  0  0  0  0  0  0  0
   14.1753   -2.1481    0.0000 C   0  0  0  0  0  0  0  0  0  0  0  0
   12.8497   -2.8501    0.0000 C   0  0  0  0  0  0  0  0  0  0  0  0
   11.3761   -3.1302    0.0000 C   0  0  0  0  0  0  0  0  0  0  0  0
   17.3927    0.5933    0.0000 C   0  0  0  0  0  0  0  0  0  0  0  0
   16.8564   -0.9434    0.0000 C   0  0  0  0  0  0  0  0  0  0  0  0
   16.6452   -2.4285    0.0000 O   0  0  0  0  0  0  0  0  0  0  0  0
   18.3421   -0.7371    0.0000 N   0  0  0  0  0  0  0  0  0  0  0  0
   19.2637   -1.9207    0.0000 C   0  0  0  0  0  0  0  0  0  0  0  0
   19.7248   -3.3480    0.0000 C   0  0  0  0  0  0  0  0  0  0  0  0
   18.7192   -4.4611    0.0000 C   0  0  0  0  0  0  0  0  0  0  0  0
   19.0287   -5.9288    0.0000 C   0  0  0  0  0  0  0  0  0  0  0  0
   17.7284   -6.6767    0.0000 N   0  0  0  0  0  0  0  0  0  0  0  0
   16.6153   -5.6711    0.0000 C   0  0  0  0  0  0  0  0  0  0  0  0
   17.2277   -4.3018    0.0000 N   0  0  0  0  0  0  0  0  0  0  0  0
   20.7494   -1.7144    0.0000 C   0  0  0  0  0  0  0  0  0  0  0  0
   21.3136   -0.3246    0.0000 O   0  0  0  0  0  0  0  0  0  0  0  0
   21.6709   -2.8980    0.0000 N   0  0  0  0  0  0  0  0  0  0  0  0
   23.1567   -2.6917    0.0000 C   0  0  0  0  0  0  0  0  0  0  0  0
   24.4823   -1.9897    0.0000 C   0  0  0  0  0  0  0  0  0  0  0  0
   25.7530   -2.7867    0.0000 C   0  0  0  0  0  0  0  0  0  0  0  0
   27.1447   -2.2271    0.0000 C   0  0  0  0  0  0  0  0  0  0  0  0
   28.1070   -3.3778    0.0000 N   0  0  0  0  0  0  0  0  0  0  0  0
   27.3100   -4.6485    0.0000 C   0  0  0  0  0  0  0  0  0  0  0  0
   25.8551   -4.2832    0.0000 N   0  0  0  0  0  0  0  0  0  0  0  0
   24.0782   -3.8752    0.0000 C   0  0  0  0  0  0  0  0  0  0  0  0
   23.5140   -5.2651    0.0000 O   0  0  0  0  0  0  0  0  0  0  0  0
   25.5639   -3.6690    0.0000 N   0  0  0  0  0  0  0  0  0  0  0  0
   26.4855   -4.8525    0.0000 C   0  0  0  0  0  0  0  0  0  0  0  0
   26.9466   -6.2799    0.0000 C   0  0  0  0  0  0  0  0  0  0  0  0
   25.9411   -7.3929    0.0000 O   0  0  0  0  0  0  0  0  0  0  0  0
   27.9712   -4.6462    0.0000 C   0  0  0  0  0  0  0  0  0  0  0  0
   28.8550   -3.4342    0.0000 O   0  0  0  0  0  0  0  0  0  0  0  0
   28.8927   -5.8298    0.0000 N   0  0  0  0  0  0  0  0  0  0  0  0
   30.3785   -5.6235    0.0000 C   0  0  0  0  0  0  0  0  0  0  0  0
   31.7041   -4.9215    0.0000 C   0  0  0  0  0  0  0  0  0  0  0  0
   32.7096   -3.8085    0.0000 O   0  0  0  0  0  0  0  0  0  0  0  0
   32.9748   -5.7185    0.0000 C   0  0  0  0  0  0  0  0  0  0  0  0
   31.3000   -6.8071    0.0000 C   0  0  0  0  0  0  0  0  0  0  0  0
   32.7998   -6.7834    0.0000 O   0  0  0  0  0  0  0  0  0  0  0  0
   30.7358   -8.1969    0.0000 O   0  0  0  0  0  0  0  0  0  0  0  0
  -29.8404   -2.4394    0.0000 H   0  0  0  0  0  0  0  0  0  0  0  0
  -30.3062    2.0290    0.0000 H   0  0  0  0  0  0  0  0  0  0  0  0
  -32.9937    3.3620    0.0000 H   0  0  0  0  0  0  0  0  0  0  0  0
  -32.2556   -2.5587    0.0000 H   0  0  0  0  0  0  0  0  0  0  0  0
  -39.0823   -4.7289    0.0000 H   0  0  0  0  0  0  0  0  0  0  0  0
  -40.4813    0.2754    0.0000 H   0  0  0  0  0  0  0  0  0  0  0  0
  -37.5921    1.0831    0.0000 H   0  0  0  0  0  0  0  0  0  0  0  0
  -42.2985   -1.5814    0.0000 H   0  0  0  0  0  0  0  0  0  0  0  0
  -32.5588   -0.2075    0.0000 H   0  0  0  0  0  0  0  0  0  0  0  0
  -30.3762   -2.4849    0.0000 H   0  0  0  0  0  0  0  0  0  0  0  0
  -34.0490   -6.0195    0.0000 H   0  0  0  0  0  0  0  0  0  0  0  0
  -31.5323   -6.6648    0.0000 H   0  0  0  0  0  0  0  0  0  0  0  0
  -27.4292   -2.2981    0.0000 H   0  0  0  0  0  0  0  0  0  0  0  0
  -25.3851    1.2370    0.0000 H   0  0  0  0  0  0  0  0  0  0  0  0
  -27.3096    1.1153    0.0000 H   0  0  0  0  0  0  0  0  0  0  0  0
  -23.8962   -1.7230    0.0000 H   0  0  0  0  0  0  0  0  0  0  0  0
  -25.8208   -1.8447    0.0000 H   0  0  0  0  0  0  0  0  0  0  0  0
  -22.2434   -1.9701    0.0000 H   0  0  0  0  0  0  0  0  0  0  0  0
  -22.1238    1.4433    0.0000 H   0  0  0  0  0  0  0  0  0  0  0  0
  -19.7762    3.0041    0.0000 H   0  0  0  0  0  0  0  0  0  0  0  0
  -21.5431    2.2315    0.0000 H   0  0  0  0  0  0  0  0  0  0  0  0
  -17.3648    0.7318    0.0000 H   0  0  0  0  0  0  0  0  0  0  0  0
  -18.4063   -0.0709    0.0000 H   0  0  0  0  0  0  0  0  0  0  0  0
  -17.5301    5.1879    0.0000 H   0  0  0  0  0  0  0  0  0  0  0  0
  -18.2257    1.9968    0.0000 H   0  0  0  0  0  0  0  0  0  0  0  0
  -18.1826   -1.2353    0.0000 H   0  0  0  0  0  0  0  0  0  0  0  0
  -14.7738   -1.8976    0.0000 H   0  0  0  0  0  0  0  0  0  0  0  0
  -14.9620   -0.2746    0.0000 H   0  0  0  0  0  0  0  0  0  0  0  0
  -17.4303   -3.8778    0.0000 H   0  0  0  0  0  0  0  0  0  0  0  0
  -17.9556   -2.1724    0.0000 H   0  0  0  0  0  0  0  0  0  0  0  0
  -14.1620   -4.4226    0.0000 H   0  0  0  0  0  0  0  0  0  0  0  0
  -14.4755   -2.6659    0.0000 H   0  0  0  0  0  0  0  0  0  0  0  0
  -17.3867   -5.5484    0.0000 H   0  0  0  0  0  0  0  0  0  0  0  0
  -14.2823   -8.8062    0.0000 H   0  0  0  0  0  0  0  0  0  0  0  0
  -12.4015   -7.0139    0.0000 H   0  0  0  0  0  0  0  0  0  0  0  0
  -13.0132   -4.4888    0.0000 H   0  0  0  0  0  0  0  0  0  0  0  0
  -14.2830   -1.4555    0.0000 H   0  0  0  0  0  0  0  0  0  0  0  0
  -14.3451    1.9352    0.0000 H   0  0  0  0  0  0  0  0  0  0  0  0
  -12.1761    3.5369    0.0000 H   0  0  0  0  0  0  0  0  0  0  0  0
  -13.7644    2.7235    0.0000 H   0  0  0  0  0  0  0  0  0  0  0  0
  -10.6276    0.4210    0.0000 H   0  0  0  0  0  0  0  0  0  0  0  0
   -8.5534    3.2968    0.0000 H   0  0  0  0  0  0  0  0  0  0  0  0
   -9.6171    4.5370    0.0000 H   0  0  0  0  0  0  0  0  0  0  0  0
  -11.2927    3.9232    0.0000 H   0  0  0  0  0  0  0  0  0  0  0  0
   -9.1320   -0.2059    0.0000 H   0  0  0  0  0  0  0  0  0  0  0  0
   -8.1347    1.6024    0.0000 H   0  0  0  0  0  0  0  0  0  0  0  0
   -8.9908    2.6005    0.0000 H   0  0  0  0  0  0  0  0  0  0  0  0
  -10.4471    2.4887    0.0000 H   0  0  0  0  0  0  0  0  0  0  0  0
  -10.4039   -0.7434    0.0000 H   0  0  0  0  0  0  0  0  0  0  0  0
   -6.9951   -1.4056    0.0000 H   0  0  0  0  0  0  0  0  0  0  0  0
   -7.0754    0.0693    0.0000 H   0  0  0  0  0  0  0  0  0  0  0  0
   -9.6516   -3.3859    0.0000 H   0  0  0  0  0  0  0  0  0  0  0  0
  -10.1769   -1.6805    0.0000 H   0  0  0  0  0  0  0  0  0  0  0  0
   -6.3833   -3.9307    0.0000 H   0  0  0  0  0  0  0  0  0  0  0  0
   -6.6968   -2.1740    0.0000 H   0  0  0  0  0  0  0  0  0  0  0  0
   -9.6080   -5.0565    0.0000 H   0  0  0  0  0  0  0  0  0  0  0  0
   -6.5036   -8.3142    0.0000 H   0  0  0  0  0  0  0  0  0  0  0  0
   -4.6228   -6.5219    0.0000 H   0  0  0  0  0  0  0  0  0  0  0  0
   -5.2345   -3.9969    0.0000 H   0  0  0  0  0  0  0  0  0  0  0  0
   -6.5043   -0.9635    0.0000 H   0  0  0  0  0  0  0  0  0  0  0  0
   -6.5664    2.4272    0.0000 H   0  0  0  0  0  0  0  0  0  0  0  0
   -4.3974    4.0288    0.0000 H   0  0  0  0  0  0  0  0  0  0  0  0
   -5.9857    3.2154    0.0000 H   0  0  0  0  0  0  0  0  0  0  0  0
   -1.8074    1.7157    0.0000 H   0  0  0  0  0  0  0  0  0  0  0  0
   -2.8489    0.9129    0.0000 H   0  0  0  0  0  0  0  0  0  0  0  0
   -1.8384    5.0289    0.0000 H   0  0  0  0  0  0  0  0  0  0  0  0
   -3.5140    4.4152    0.0000 H   0  0  0  0  0  0  0  0  0  0  0  0
    0.1449    2.2350    0.0000 H   0  0  0  0  0  0  0  0  0  0  0  0
    2.4994    5.6716    0.0000 H   0  0  0  0  0  0  0  0  0  0  0  0
    0.4077    7.2127    0.0000 H   0  0  0  0  0  0  0  0  0  0  0  0
   -1.9727    6.1718    0.0000 H   0  0  0  0  0  0  0  0  0  0  0  0
   -2.6684    2.9807    0.0000 H   0  0  0  0  0  0  0  0  0  0  0  0
   -2.6253   -0.2514    0.0000 H   0  0  0  0  0  0  0  0  0  0  0  0
    0.7836   -0.9137    0.0000 H   0  0  0  0  0  0  0  0  0  0  0  0
    0.5953    0.7093    0.0000 H   0  0  0  0  0  0  0  0  0  0  0  0
   -1.8729   -2.8939    0.0000 H   0  0  0  0  0  0  0  0  0  0  0  0
   -2.3982   -1.1886    0.0000 H   0  0  0  0  0  0  0  0  0  0  0  0
    1.3954   -3.4387    0.0000 H   0  0  0  0  0  0  0  0  0  0  0  0
    1.0819   -1.6820    0.0000 H   0  0  0  0  0  0  0  0  0  0  0  0
   -1.8293   -4.5645    0.0000 H   0  0  0  0  0  0  0  0  0  0  0  0
    1.2751   -7.8223    0.0000 H   0  0  0  0  0  0  0  0  0  0  0  0
    3.1559   -6.0300    0.0000 H   0  0  0  0  0  0  0  0  0  0  0  0
    2.5442   -3.5049    0.0000 H   0  0  0  0  0  0  0  0  0  0  0  0
    1.2744   -0.4716    0.0000 H   0  0  0  0  0  0  0  0  0  0  0  0
    1.2123    2.9191    0.0000 H   0  0  0  0  0  0  0  0  0  0  0  0
    1.7218    3.5386    0.0000 H   0  0  0  0  0  0  0  0  0  0  0  0
    5.5396    4.0820    0.0000 H   0  0  0  0  0  0  0  0  0  0  0  0
    6.1372    2.5558    0.0000 H   0  0  0  0  0  0  0  0  0  0  0  0
    4.8146    1.3879    0.0000 H   0  0  0  0  0  0  0  0  0  0  0  0
    3.4652    5.9770    0.0000 H   0  0  0  0  0  0  0  0  0  0  0  0
    2.1006    4.8271    0.0000 H   0  0  0  0  0  0  0  0  0  0  0  0
    5.1207    6.3501    0.0000 H   0  0  0  0  0  0  0  0  0  0  0  0
    6.5044    5.0321    0.0000 H   0  0  0  0  0  0  0  0  0  0  0  0
    5.1123    3.3361    0.0000 H   0  0  0  0  0  0  0  0  0  0  0  0
    4.5635    3.4715    0.0000 H   0  0  0  0  0  0  0  0  0  0  0  0
    5.0743   -0.0593    0.0000 H   0  0  0  0  0  0  0  0  0  0  0  0
    5.7447   -1.3684    0.0000 H   0  0  0  0  0  0  0  0  0  0  0  0
    5.9806   -1.9470    0.0000 H   0  0  0  0  0  0  0  0  0  0  0  0
    6.7769   -2.7641    0.0000 H   0  0  0  0  0  0  0  0  0  0  0  0
    7.2386   -3.1608    0.0000 H   0  0  0  0  0  0  0  0  0  0  0  0
    8.5300   -3.8647    0.0000 H   0  0  0  0  0  0  0  0  0  0  0  0
    9.4983   -4.4127    0.0000 H   0  0  0  0  0  0  0  0  0  0  0  0
    4.8623   -1.1366    0.0000 H   0  0  0  0  0  0  0  0  0  0  0  0
    3.6965   -0.2713    0.0000 H   0  0  0  0  0  0  0  0  0  0  0  0
    3.9149    1.3856    0.0000 H   0  0  0  0  0  0  0  0  0  0  0  0
    5.6148    5.2460    0.0000 H   0  0  0  0  0  0  0  0  0  0  0  0
    6.1559    5.7679    0.0000 H   0  0  0  0  0  0  0  0  0  0  0  0
    6.3580    8.0823    0.0000 H   0  0  0  0  0  0  0  0  0  0  0  0
    5.8211    6.7061    0.0000 H   0  0  0  0  0  0  0  0  0  0  0  0
    9.4997    6.8888    0.0000 H   0  0  0  0  0  0  0  0  0  0  0  0
    9.0808   10.5286    0.0000 H   0  0  0  0  0  0  0  0  0  0  0  0
    7.3014   10.6627    0.0000 H   0  0  0  0  0  0  0  0  0  0  0  0
    6.6529    9.0003    0.0000 H   0  0  0  0  0  0  0  0  0  0  0  0
   10.1896    9.9438    0.0000 H   0  0  0  0  0  0  0  0  0  0  0  0
   11.3064    8.7441    0.0000 H   0  0  0  0  0  0  0  0  0  0  0  0
   10.4682    7.1477    0.0000 H   0  0  0  0  0  0  0  0  0  0  0  0
   10.1458    8.3386    0.0000 H   0  0  0  0  0  0  0  0  0  0  0  0
   11.2430    8.3134    0.0000 H   0  0  0  0  0  0  0  0  0  0  0  0
   13.9808    8.8282    0.0000 H   0  0  0  0  0  0  0  0  0  0  0  0
   13.9171    7.1956    0.0000 H   0  0  0  0  0  0  0  0  0  0  0  0
   13.1090   10.6253    0.0000 H   0  0  0  0  0  0  0  0  0  0  0  0
   15.4405    6.8529    0.0000 H   0  0  0  0  0  0  0  0  0  0  0  0
   15.9047    6.0060    0.0000 H   0  0  0  0  0  0  0  0  0  0  0  0
   18.2707    3.8650    0.0000 H   0  0  0  0  0  0  0  0  0  0  0  0
   17.0296    3.0641    0.0000 H   0  0  0  0  0  0  0  0  0  0  0  0
   17.9850    7.3258    0.0000 H   0  0  0  0  0  0  0  0  0  0  0  0
   16.3789    6.5483    0.0000 H   0  0  0  0  0  0  0  0  0  0  0  0
   20.6107    5.3049    0.0000 H   0  0  0  0  0  0  0  0  0  0  0  0
   19.1113    4.3374    0.0000 H   0  0  0  0  0  0  0  0  0  0  0  0
   19.2375    8.4322    0.0000 H   0  0  0  0  0  0  0  0  0  0  0  0
   23.7372    8.3798    0.0000 H   0  0  0  0  0  0  0  0  0  0  0  0
   23.7069    5.7819    0.0000 H   0  0  0  0  0  0  0  0  0  0  0  0
   21.4420    4.5091    0.0000 H   0  0  0  0  0  0  0  0  0  0  0  0
   17.7115    1.6594    0.0000 H   0  0  0  0  0  0  0  0  0  0  0  0
   15.7668   -2.4892    0.0000 H   0  0  0  0  0  0  0  0  0  0  0  0
   16.6654   -1.5384    0.0000 H   0  0  0  0  0  0  0  0  0  0  0  0
   14.4517   -3.6225    0.0000 H   0  0  0  0  0  0  0  0  0  0  0  0
   15.4089   -3.0014    0.0000 H   0  0  0  0  0  0  0  0  0  0  0  0
   12.4989   -4.3086    0.0000 H   0  0  0  0  0  0  0  0  0  0  0  0
   13.9138   -3.9073    0.0000 H   0  0  0  0  0  0  0  0  0  0  0  0
   11.4334   -4.6291    0.0000 H   0  0  0  0  0  0  0  0  0  0  0  0
   18.6595   -0.2099    0.0000 H   0  0  0  0  0  0  0  0  0  0  0  0
   18.5313    1.5699    0.0000 H   0  0  0  0  0  0  0  0  0  0  0  0
   17.1421    2.0723    0.0000 H   0  0  0  0  0  0  0  0  0  0  0  0
   19.0716    0.5736    0.0000 H   0  0  0  0  0  0  0  0  0  0  0  0
   17.9381   -2.6227    0.0000 H   0  0  0  0  0  0  0  0  0  0  0  0
   20.4952   -4.6351    0.0000 H   0  0  0  0  0  0  0  0  0  0  0  0
   21.1809   -2.9877    0.0000 H   0  0  0  0  0  0  0  0  0  0  0  0
   20.3980   -6.5412    0.0000 H   0  0  0  0  0  0  0  0  0  0  0  0
   17.5691   -8.1682    0.0000 H   0  0  0  0  0  0  0  0  0  0  0  0
   15.1476   -5.9805    0.0000 H   0  0  0  0  0  0  0  0  0  0  0  0
   21.2803   -4.3462    0.0000 H   0  0  0  0  0  0  0  0  0  0  0  0
   22.6955   -1.2643    0.0000 H   0  0  0  0  0  0  0  0  0  0  0  0
   25.4878   -0.8766    0.0000 H   0  0  0  0  0  0  0  0  0  0  0  0
   23.5607   -0.8061    0.0000 H   0  0  0  0  0  0  0  0  0  0  0  0
   27.5100   -0.7723    0.0000 H   0  0  0  0  0  0  0  0  0  0  0  0
   29.6035   -3.2756    0.0000 H   0  0  0  0  0  0  0  0  0  0  0  0
   28.0350   -5.9616    0.0000 H   0  0  0  0  0  0  0  0  0  0  0  0
   26.4477   -2.4569    0.0000 H   0  0  0  0  0  0  0  0  0  0  0  0
   25.1599   -5.5545    0.0000 H   0  0  0  0  0  0  0  0  0  0  0  0
   27.7170   -7.5669    0.0000 H   0  0  0  0  0  0  0  0  0  0  0  0
   28.4357   -6.0997    0.0000 H   0  0  0  0  0  0  0  0  0  0  0  0
   26.4022   -8.8203    0.0000 H   0  0  0  0  0  0  0  0  0  0  0  0
   28.5021   -7.2780    0.0000 H   0  0  0  0  0  0  0  0  0  0  0  0
   29.9173   -4.1961    0.0000 H   0  0  0  0  0  0  0  0  0  0  0  0
   30.7825   -3.7379    0.0000 H   0  0  0  0  0  0  0  0  0  0  0  0
   34.2037   -3.9416    0.0000 H   0  0  0  0  0  0  0  0  0  0  0  0
   34.3761   -5.1833    0.0000 H   0  0  0  0  0  0  0  0  0  0  0  0
   33.8963   -6.9021    0.0000 H   0  0  0  0  0  0  0  0  0  0  0  0
   32.4350   -7.1180    0.0000 H   0  0  0  0  0  0  0  0  0  0  0  0
   31.6573   -9.3804    0.0000 H   0  0  0  0  0  0  0  0  0  0  0  0
  1  2  1  0
  2  3  1  0
  3  4  2  0
  4  5  1  0
  5  6  2  0
  6  7  1  0
  7  8  2  0
  7  9  1  0
  9 10  1  0
 10 11  1  0
 11 12  2  0
  9 13  1  0
 13 14  1  0
 14 15  2  0
 15 16  1  0
 16 17  2  0
 17 18  1  0
 16 19  1  0
 14 20  1  0
 20 21  1  0
 21 22  2  0
 22 23  1  0
 23 24  2  0
 24 25  1  0
 25 26  2  0
 25 27  1  0
  1 28  2  0
  1 29  1  0
 29 30  1  0
 30 31  1  0
 31 32  1  0
 32 33  2  0
 32 34  1  0
 34 35  1  0
 35 36  1  0
 36 37  1  0
 37 38  1  0
 38 39  2  0
 38 40  1  0
 35 41  1  0
 41 42  2  0
 41 43  1  0
 43 44  1  0
 44 45  1  0
 45 46  1  0
 46 47  1  0
 47 48  1  0
 48 49  1  0
 49 50  2  3
 49 51  1  0
 44 52  1  0
 52 53  2  0
 52 54  1  0
 54 55  1  0
 55 56  1  0
 56 57  1  0
 57 58  1  0
 57 59  1  0
 55 60  1  0
 60 61  2  0
 60 62  1  0
 62 63  1  0
 63 64  1  0
 64 65  1  0
 65 66  1  0
 66 67  1  0
 67 68  1  0
 68 69  2  3
 68 70  1  0
 63 71  1  0
 71 72  2  0
 71 73  1  0
 73 74  1  0
 74 75  1  0
 75 76  1  0
 76 77  1  0
 77 78  1  0
 78 79  1  0
 79 80  2  3
 79 81  1  0
 74 82  1  0
 82 83  2  0
 82 84  1  0
 84 85  1  0
 85 86  1  0
 86 87  1  0
 87 88  1  0
 88 89  1  0
 89 90  1  0
 90 91  2  3
 90 92  1  0
 85 93  1  0
 93 94  2  0
 93 95  1  0
 95 96  1  0
 96 97  1  0
 97 98  1  0
 97 99  1  0
 99100  1  0
 96101  1  0
101102  2  0
101103  1  0
104103  1  6
104105  1  0
105106  1  0
106107  1  0
107108  1  0
104109  1  0
104110  1  0
110111  2  0
110112  1  0
112113  1  0
113114  1  0
114115  1  0
115116  1  0
115117  1  0
113118  1  0
118119  2  0
118120  1  0
120121  1  0
121122  1  0
122123  1  0
121124  1  0
124125  2  0
124126  1  0
126127  1  0
127128  1  0
128129  1  0
129130  1  0
130131  1  0
131132  1  0
132133  2  3
132134  1  0
127135  1  0
135136  2  0
135137  1  0
137138  1  0
138139  1  0
139140  1  0
140141  1  0
141142  1  0
138143  1  0
138144  1  6
144145  2  0
144146  1  0
146147  1  0
147148  1  0
148149  1  0
149150  2  0
150151  1  0
151152  1  0
152153  2  0
147154  1  0
154155  2  0
154156  1  0
156157  1  0
157158  1  0
158159  1  0
159160  2  0
160161  1  0
161162  1  0
162163  2  0
157164  1  0
164165  2  0
164166  1  0
166167  1  0
167168  1  0
168169  1  0
167170  1  0
170171  2  0
170172  1  0
172173  1  0
173174  1  0
174175  1  0
174176  1  0
173177  1  0
177178  2  0
177179  1  0
  8  3  1  0
153149  1  0
163159  1  0
 11  6  1  0
108142  2  0
 18 13  2  0
 22  9  1  0
 26 21  1  0
  2180  1  0
  4181  1  0
  5182  1  0
  8183  1  0
 15184  1  0
 17185  1  0
 18186  1  0
 19187  1  0
 23188  1  0
 24189  1  0
 26190  1  0
 27191  1  0
 29192  1  0
 30193  1  0
 30194  1  0
 31195  1  0
 31196  1  0
 34197  1  0
 35198  1  1
 36199  1  0
 36200  1  0
 37201  1  0
 37202  1  0
 40203  1  0
 43204  1  0
 44205  1  6
 45206  1  0
 45207  1  0
 46208  1  0
 46209  1  0
 47210  1  0
 47211  1  0
 48212  1  0
 50213  1  0
 51214  1  0
 51215  1  0
 54216  1  0
 55217  1  1
 56218  1  0
 56219  1  0
 57220  1  0
 58221  1  0
 58222  1  0
 58223  1  0
 59224  1  0
 59225  1  0
 59226  1  0
 62227  1  0
 63228  1  6
 64229  1  0
 64230  1  0
 65231  1  0
 65232  1  0
 66233  1  0
 66234  1  0
 67235  1  0
 69236  1  0
 70237  1  0
 70238  1  0
 73239  1  0
 74240  1  1
 75241  1  0
 75242  1  0
 76243  1  0
 76244  1  0
 77245  1  0
 77246  1  0
 78247  1  0
 80248  1  0
 81249  1  0
 81250  1  0
 84251  1  0
 85252  1  6
 86253  1  0
 86254  1  0
 87255  1  0
 87256  1  0
 88257  1  0
 88258  1  0
 89259  1  0
 91260  1  0
 92261  1  0
 92262  1  0
 95263  1  0
 96264  1  1
 97265  1  1
 98266  1  0
 98267  1  0
 98268  1  0
 99269  1  0
 99270  1  0
100271  1  0
100272  1  0
100273  1  0
103274  1  0
105275  1  0
105276  1  0
106277  1  0
106278  1  0
107279  1  0
107280  1  0
108281  1  0
109282  1  0
109283  1  0
109284  1  0
112285  1  0
113286  1  1
114287  1  0
114288  1  0
115289  1  0
116290  1  0
116291  1  0
116292  1  0
117293  1  0
117294  1  0
117295  1  0
120296  1  0
121297  1  1
122298  1  0
122299  1  0
123300  1  0
126301  1  0
127302  1  1
128303  1  0
128304  1  0
129305  1  0
129306  1  0
130307  1  0
130308  1  0
131309  1  0
133310  1  0
134311  1  0
134312  1  0
137313  1  0
139314  1  0
139315  1  0
140316  1  0
140317  1  0
141318  1  0
141319  1  0
142320  1  0
143321  1  0
143322  1  0
143323  1  0
146324  1  0
147325  1  6
148326  1  0
148327  1  0
150328  1  0
151329  1  0
152330  1  0
156331  1  0
157332  1  1
158333  1  0
158334  1  0
160335  1  0
161336  1  0
162337  1  0
166338  1  0
167339  1  6
168340  1  0
168341  1  0
169342  1  0
172343  1  0
173344  1  1
174345  1  1
175346  1  0
176347  1  0
176348  1  0
176349  1  0
179350  1  0
M  END
