
     RDKit          2D

335341  0  0  0  0  0  0  0  0999 V2000
   15.4927   -3.9469    0.0000 C   0  0  0  0  0  0  0  0  0  0  0  0
   16.7697   -4.7337    0.0000 N   0  0  0  0  0  0  0  0  0  0  0  0
   16.7269   -6.2331    0.0000 C   0  0  0  0  0  0  0  0  0  0  0  0
   15.4070   -6.9457    0.0000 C   0  0  0  0  0  0  0  0  0  0  0  0
   15.3641   -8.4451    0.0000 C   0  0  0  0  0  0  0  0  0  0  0  0
   16.6412   -9.2319    0.0000 C   0  0  0  0  0  0  0  0  0  0  0  0
   17.9612   -8.5193    0.0000 C   0  0  0  0  0  0  0  0  0  0  0  0
   18.0040   -7.0199    0.0000 C   0  0  0  0  0  0  0  0  0  0  0  0
   19.0468   -9.5544    0.0000 C   0  0  0  0  0  0  0  0  0  0  0  0
   18.3978  -10.9067    0.0000 O   0  0  0  0  0  0  0  0  0  0  0  0
   16.9111  -10.7074    0.0000 C   0  0  0  0  0  0  0  0  0  0  0  0
   15.8759  -11.7930    0.0000 O   0  0  0  0  0  0  0  0  0  0  0  0
   20.0182  -10.6973    0.0000 C   0  0  0  0  0  0  0  0  0  0  0  0
   21.4937  -10.4275    0.0000 C   0  0  0  0  0  0  0  0  0  0  0  0
   22.4652  -11.5704    0.0000 C   0  0  0  0  0  0  0  0  0  0  0  0
   21.9611  -12.9832    0.0000 C   0  0  0  0  0  0  0  0  0  0  0  0
   20.4856  -13.2530    0.0000 C   0  0  0  0  0  0  0  0  0  0  0  0
   19.5141  -12.1101    0.0000 C   0  0  0  0  0  0  0  0  0  0  0  0
   22.9326  -14.1261    0.0000 O   0  0  0  0  0  0  0  0  0  0  0  0
   21.9978   -9.0147    0.0000 O   0  0  0  0  0  0  0  0  0  0  0  0
   21.0264   -7.8718    0.0000 C   0  0  0  0  0  0  0  0  0  0  0  0
   19.5508   -8.1416    0.0000 C   0  0  0  0  0  0  0  0  0  0  0  0
   19.2680   -6.8728    0.0000 C   0  0  0  0  0  0  0  0  0  0  0  0
   19.5368   -6.1193    0.0000 C   0  0  0  0  0  0  0  0  0  0  0  0
   20.3238   -5.9754    0.0000 C   0  0  0  0  0  0  0  0  0  0  0  0
   20.8419   -6.5849    0.0000 C   0  0  0  0  0  0  0  0  0  0  0  0
   21.0631   -3.9033    0.0000 O   0  0  0  0  0  0  0  0  0  0  0  0
   14.1727   -4.6595    0.0000 S   0  0  0  0  0  0  0  0  0  0  0  0
   15.5355   -2.4475    0.0000 N   0  0  0  0  0  0  0  0  0  0  0  0
   14.2584   -1.6607    0.0000 C   0  0  0  0  0  0  0  0  0  0  0  0
   14.3012   -0.1613    0.0000 C   0  0  0  0  0  0  0  0  0  0  0  0
   13.0241    0.6255    0.0000 C   0  0  0  0  0  0  0  0  0  0  0  0
   12.0474   -0.5129    0.0000 O   0  0  0  0  0  0  0  0  0  0  0  0
   13.0670    2.1248    0.0000 N   0  0  0  0  0  0  0  0  0  0  0  0
   11.7899    2.9116    0.0000 C   0  0  0  0  0  0  0  0  0  0  0  0
   11.5980    1.4240    0.0000 C   0  0  0  0  0  0  0  0  0  0  0  0
   10.9761    0.0590    0.0000 C   0  0  0  0  0  0  0  0  0  0  0  0
    9.9795   -1.0621    0.0000 C   0  0  0  0  0  0  0  0  0  0  0  0
    8.6967   -1.8396    0.0000 C   0  0  0  0  0  0  0  0  0  0  0  0
   13.0323    3.7521    0.0000 C   0  0  0  0  0  0  0  0  0  0  0  0
   11.5348    4.3898    0.0000 C   0  0  0  0  0  0  0  0  0  0  0  0
   12.9584    4.8623    0.0000 O   0  0  0  0  0  0  0  0  0  0  0  0
   10.8553    5.7271    0.0000 N   0  0  0  0  0  0  0  0  0  0  0  0
    9.8119    6.8047    0.0000 C   0  0  0  0  0  0  0  0  0  0  0  0
    9.9294    8.3000    0.0000 C   0  0  0  0  0  0  0  0  0  0  0  0
   11.2832    8.9460    0.0000 C   0  0  0  0  0  0  0  0  0  0  0  0
   11.4007   10.4414    0.0000 C   0  0  0  0  0  0  0  0  0  0  0  0
   12.7545   11.0873    0.0000 N   0  0  0  0  0  0  0  0  0  0  0  0
   12.8720   12.5827    0.0000 C   0  0  0  0  0  0  0  0  0  0  0  0
   14.2258   13.2286    0.0000 N   0  0  0  0  0  0  0  0  0  0  0  0
   11.6358   13.4321    0.0000 N   0  0  0  0  0  0  0  0  0  0  0  0
    8.4971    7.5268    0.0000 C   0  0  0  0  0  0  0  0  0  0  0  0
    9.0153    8.9345    0.0000 O   0  0  0  0  0  0  0  0  0  0  0  0
    7.0280    7.8294    0.0000 N   0  0  0  0  0  0  0  0  0  0  0  0
    5.5349    7.6854    0.0000 C   0  0  0  0  0  0  0  0  0  0  0  0
    4.4390    8.7097    0.0000 C   0  0  0  0  0  0  0  0  0  0  0  0
    4.7781   10.1708    0.0000 C   0  0  0  0  0  0  0  0  0  0  0  0
    3.6822   11.1951    0.0000 C   0  0  0  0  0  0  0  0  0  0  0  0
    4.0213   12.6563    0.0000 N   0  0  0  0  0  0  0  0  0  0  0  0
    2.9255   13.6805    0.0000 C   0  0  0  0  0  0  0  0  0  0  0  0
    3.2645   15.1417    0.0000 N   0  0  0  0  0  0  0  0  0  0  0  0
    1.4905   13.2436    0.0000 N   0  0  0  0  0  0  0  0  0  0  0  0
    4.1506    7.1078    0.0000 C   0  0  0  0  0  0  0  0  0  0  0  0
    3.3731    8.3906    0.0000 O   0  0  0  0  0  0  0  0  0  0  0  0
    2.9980    6.1478    0.0000 N   0  0  0  0  0  0  0  0  0  0  0  0
    2.1796    4.8907    0.0000 C   0  0  0  0  0  0  0  0  0  0  0  0
    0.6956    4.6725    0.0000 C   0  0  0  0  0  0  0  0  0  0  0  0
   -0.2354    5.8487    0.0000 C   0  0  0  0  0  0  0  0  0  0  0  0
   -1.7194    5.6305    0.0000 C   0  0  0  0  0  0  0  0  0  0  0  0
   -2.6504    6.8066    0.0000 N   0  0  0  0  0  0  0  0  0  0  0  0
   -4.1345    6.5884    0.0000 C   0  0  0  0  0  0  0  0  0  0  0  0
   -4.9151    7.8693    0.0000 N   0  0  0  0  0  0  0  0  0  0  0  0
   -5.0085    5.3694    0.0000 N   0  0  0  0  0  0  0  0  0  0  0  0
    1.7681    3.4483    0.0000 C   0  0  0  0  0  0  0  0  0  0  0  0
    0.9887    3.8689    0.0000 O   0  0  0  0  0  0  0  0  0  0  0  0
    1.8001    1.9486    0.0000 N   0  0  0  0  0  0  0  0  0  0  0  0
    2.2727    0.5250    0.0000 C   0  0  0  0  0  0  0  0  0  0  0  0
    3.1438   -0.6961    0.0000 C   0  0  0  0  0  0  0  0  0  0  0  0
    4.3362   -1.6061    0.0000 C   0  0  0  0  0  0  0  0  0  0  0  0
    5.7439   -2.1243    0.0000 C   0  0  0  0  0  0  0  0  0  0  0  0
    7.2418   -2.2045    0.0000 C   0  0  0  0  0  0  0  0  0  0  0  0
    2.1491   -1.0641    0.0000 C   0  0  0  0  0  0  0  0  0  0  0  0
    2.3999   -2.4078    0.0000 C   0  0  0  0  0  0  0  0  0  0  0  0
    2.3918   -3.7747    0.0000 C   0  0  0  0  0  0  0  0  0  0  0  0
    2.1252   -5.1154    0.0000 C   0  0  0  0  0  0  0  0  0  0  0  0
    0.9164    1.3622    0.0000 C   0  0  0  0  0  0  0  0  0  0  0  0
    2.6537    2.7119    0.0000 O   0  0  0  0  0  0  0  0  0  0  0  0
   -0.0211    2.3570    0.0000 N   0  0  0  0  0  0  0  0  0  0  0  0
   -1.1298    3.1564    0.0000 C   0  0  0  0  0  0  0  0  0  0  0  0
   -0.8150    5.2601    0.0000 C   0  0  0  0  0  0  0  0  0  0  0  0
   -2.1330    5.9763    0.0000 C   0  0  0  0  0  0  0  0  0  0  0  0
   -2.1718    7.4758    0.0000 C   0  0  0  0  0  0  0  0  0  0  0  0
   -3.4897    8.1920    0.0000 N   0  0  0  0  0  0  0  0  0  0  0  0
   -3.5285    9.6915    0.0000 C   0  0  0  0  0  0  0  0  0  0  0  0
   -4.6340   10.7053    0.0000 N   0  0  0  0  0  0  0  0  0  0  0  0
   -2.2493   10.4748    0.0000 N   0  0  0  0  0  0  0  0  0  0  0  0
   -2.3699    3.7316    0.0000 C   0  0  0  0  0  0  0  0  0  0  0  0
   -2.3607    5.8750    0.0000 O   0  0  0  0  0  0  0  0  0  0  0  0
   -3.6963    4.0617    0.0000 N   0  0  0  0  0  0  0  0  0  0  0  0
   -5.0613    4.1348    0.0000 C   0  0  0  0  0  0  0  0  0  0  0  0
   -5.9338    6.0747    0.0000 C   0  0  0  0  0  0  0  0  0  0  0  0
   -5.2811    7.4252    0.0000 C   0  0  0  0  0  0  0  0  0  0  0  0
   -6.1244    8.6657    0.0000 C   0  0  0  0  0  0  0  0  0  0  0  0
   -5.4717   10.0163    0.0000 N   0  0  0  0  0  0  0  0  0  0  0  0
   -6.3150   11.2568    0.0000 C   0  0  0  0  0  0  0  0  0  0  0  0
   -5.6624   12.6074    0.0000 N   0  0  0  0  0  0  0  0  0  0  0  0
   -7.8110   11.1468    0.0000 N   0  0  0  0  0  0  0  0  0  0  0  0
   -6.4154    3.9482    0.0000 C   0  0  0  0  0  0  0  0  0  0  0  0
   -7.0969    6.0363    0.0000 O   0  0  0  0  0  0  0  0  0  0  0  0
   -7.7098    3.5088    0.0000 N   0  0  0  0  0  0  0  0  0  0  0  0
   -8.8976    2.8323    0.0000 C   0  0  0  0  0  0  0  0  0  0  0  0
  -10.6803    3.9925    0.0000 C   0  0  0  0  0  0  0  0  0  0  0  0
  -10.8615    5.4816    0.0000 C   0  0  0  0  0  0  0  0  0  0  0  0
  -12.2415    6.0692    0.0000 C   0  0  0  0  0  0  0  0  0  0  0  0
  -12.4227    7.5583    0.0000 N   0  0  0  0  0  0  0  0  0  0  0  0
  -13.8028    8.1459    0.0000 C   0  0  0  0  0  0  0  0  0  0  0  0
  -13.9839    9.6350    0.0000 N   0  0  0  0  0  0  0  0  0  0  0  0
  -15.0017    7.2446    0.0000 N   0  0  0  0  0  0  0  0  0  0  0  0
   -9.9359    1.9433    0.0000 C   0  0  0  0  0  0  0  0  0  0  0  0
  -11.6380    3.3314    0.0000 O   0  0  0  0  0  0  0  0  0  0  0  0
  -10.7872    0.8738    0.0000 N   0  0  0  0  0  0  0  0  0  0  0  0
  -11.4207   -0.3375    0.0000 C   0  0  0  0  0  0  0  0  0  0  0  0
  -13.5477   -0.3252    0.0000 C   0  0  0  0  0  0  0  0  0  0  0  0
  -14.5051    0.8295    0.0000 C   0  0  0  0  0  0  0  0  0  0  0  0
  -15.9838    0.5777    0.0000 C   0  0  0  0  0  0  0  0  0  0  0  0
  -16.9412    1.7325    0.0000 N   0  0  0  0  0  0  0  0  0  0  0  0
  -18.4200    1.4807    0.0000 C   0  0  0  0  0  0  0  0  0  0  0  0
  -19.3773    2.6354    0.0000 N   0  0  0  0  0  0  0  0  0  0  0  0
  -18.9413    0.0742    0.0000 N   0  0  0  0  0  0  0  0  0  0  0  0
  -11.8135   -1.6467    0.0000 C   0  0  0  0  0  0  0  0  0  0  0  0
  -13.9960   -1.3992    0.0000 O   0  0  0  0  0  0  0  0  0  0  0  0
  -11.9515   -3.0067    0.0000 N   0  0  0  0  0  0  0  0  0  0  0  0
  -11.8296   -4.3681    0.0000 C   0  0  0  0  0  0  0  0  0  0  0  0
  -13.6256   -5.5078    0.0000 C   0  0  0  0  0  0  0  0  0  0  0  0
  -15.0553   -5.0540    0.0000 C   0  0  0  0  0  0  0  0  0  0  0  0
  -16.1631   -6.0652    0.0000 C   0  0  0  0  0  0  0  0  0  0  0  0
  -17.5928   -5.6114    0.0000 N   0  0  0  0  0  0  0  0  0  0  0  0
  -18.7007   -6.6227    0.0000 C   0  0  0  0  0  0  0  0  0  0  0  0
  -20.1304   -6.1689    0.0000 N   0  0  0  0  0  0  0  0  0  0  0  0
  -18.3789   -8.0877    0.0000 N   0  0  0  0  0  0  0  0  0  0  0  0
  -11.4522   -5.6819    0.0000 C   0  0  0  0  0  0  0  0  0  0  0  0
  -13.4220   -6.6536    0.0000 O   0  0  0  0  0  0  0  0  0  0  0  0
  -10.8330   -6.9006    0.0000 N   0  0  0  0  0  0  0  0  0  0  0  0
   -9.9944   -7.9800    0.0000 C   0  0  0  0  0  0  0  0  0  0  0  0
  -10.8891   -9.9098    0.0000 C   0  0  0  0  0  0  0  0  0  0  0  0
  -12.3372  -10.3009    0.0000 C   0  0  0  0  0  0  0  0  0  0  0  0
  -12.7225  -11.7506    0.0000 C   0  0  0  0  0  0  0  0  0  0  0  0
  -14.1706  -12.1418    0.0000 N   0  0  0  0  0  0  0  0  0  0  0  0
  -14.5559  -13.5915    0.0000 C   0  0  0  0  0  0  0  0  0  0  0  0
  -16.0039  -13.9827    0.0000 N   0  0  0  0  0  0  0  0  0  0  0  0
  -13.4930  -14.6500    0.0000 N   0  0  0  0  0  0  0  0  0  0  0  0
   -8.9666   -8.8812    0.0000 C   0  0  0  0  0  0  0  0  0  0  0  0
  -10.0984  -10.7636    0.0000 O   0  0  0  0  0  0  0  0  0  0  0  0
   -7.7869   -9.5717    0.0000 N   0  0  0  0  0  0  0  0  0  0  0  0
   -6.4978  -10.0263    0.0000 C   0  0  0  0  0  0  0  0  0  0  0  0
   -5.1460  -10.2289    0.0000 C   0  0  0  0  0  0  0  0  0  0  0  0
   -3.7802  -10.1719    0.0000 C   0  0  0  0  0  0  0  0  0  0  0  0
   -2.4500   -9.8574    0.0000 C   0  0  0  0  0  0  0  0  0  0  0  0
   -1.2033   -9.2969    0.0000 C   0  0  0  0  0  0  0  0  0  0  0  0
   -0.0851   -8.5106    0.0000 C   0  0  0  0  0  0  0  0  0  0  0  0
    0.8640   -7.5269    0.0000 C   0  0  0  0  0  0  0  0  0  0  0  0
    1.6097   -6.3814    0.0000 C   0  0  0  0  0  0  0  0  0  0  0  0
   -7.7421  -11.7515    0.0000 C   0  0  0  0  0  0  0  0  0  0  0  0
   -6.2072  -12.1335    0.0000 C   0  0  0  0  0  0  0  0  0  0  0  0
   -7.0709  -13.3599    0.0000 O   0  0  0  0  0  0  0  0  0  0  0  0
   -4.8608  -12.7948    0.0000 O   0  0  0  0  0  0  0  0  0  0  0  0
   17.9930   -3.8655    0.0000 H   0  0  0  0  0  0  0  0  0  0  0  0
   14.1299   -6.1589    0.0000 H   0  0  0  0  0  0  0  0  0  0  0  0
   14.0442   -9.1577    0.0000 H   0  0  0  0  0  0  0  0  0  0  0  0
   19.1123   -6.0091    0.0000 H   0  0  0  0  0  0  0  0  0  0  0  0
   23.9407  -11.3006    0.0000 H   0  0  0  0  0  0  0  0  0  0  0  0
   19.9815  -14.6658    0.0000 H   0  0  0  0  0  0  0  0  0  0  0  0
   18.0386  -12.3799    0.0000 H   0  0  0  0  0  0  0  0  0  0  0  0
   22.4285  -15.5389    0.0000 H   0  0  0  0  0  0  0  0  0  0  0  0
   17.1039   -7.2685    0.0000 H   0  0  0  0  0  0  0  0  0  0  0  0
   18.2586   -4.3331    0.0000 H   0  0  0  0  0  0  0  0  0  0  0  0
   23.0060   -6.1892    0.0000 H   0  0  0  0  0  0  0  0  0  0  0  0
   22.5386   -3.6335    0.0000 H   0  0  0  0  0  0  0  0  0  0  0  0
   16.8554   -1.7349    0.0000 H   0  0  0  0  0  0  0  0  0  0  0  0
   13.7053   -3.0550    0.0000 H   0  0  0  0  0  0  0  0  0  0  0  0
   12.7892   -1.3582    0.0000 H   0  0  0  0  0  0  0  0  0  0  0  0
   15.7704   -0.4639    0.0000 H   0  0  0  0  0  0  0  0  0  0  0  0
   14.8543    1.2330    0.0000 H   0  0  0  0  0  0  0  0  0  0  0  0
   14.4639    2.6712    0.0000 H   0  0  0  0  0  0  0  0  0  0  0  0
   13.0960    1.5007    0.0000 H   0  0  0  0  0  0  0  0  0  0  0  0
   12.4415    0.1836    0.0000 H   0  0  0  0  0  0  0  0  0  0  0  0
   12.2979   -0.6502    0.0000 H   0  0  0  0  0  0  0  0  0  0  0  0
   11.7504   -1.2257    0.0000 H   0  0  0  0  0  0  0  0  0  0  0  0
   11.3460   -1.6806    0.0000 H   0  0  0  0  0  0  0  0  0  0  0  0
   10.1606   -2.5511    0.0000 H   0  0  0  0  0  0  0  0  0  0  0  0
    9.2744   -3.2239    0.0000 H   0  0  0  0  0  0  0  0  0  0  0  0
   14.4513    3.2657    0.0000 H   0  0  0  0  0  0  0  0  0  0  0  0
   13.9123    4.9668    0.0000 H   0  0  0  0  0  0  0  0  0  0  0  0
   12.2806    5.0502    0.0000 H   0  0  0  0  0  0  0  0  0  0  0  0
   12.0764    6.5983    0.0000 H   0  0  0  0  0  0  0  0  0  0  0  0
   11.2746    7.1367    0.0000 H   0  0  0  0  0  0  0  0  0  0  0  0
    9.3552    9.6858    0.0000 H   0  0  0  0  0  0  0  0  0  0  0  0
    8.4458    8.5217    0.0000 H   0  0  0  0  0  0  0  0  0  0  0  0
   12.7763    9.0899    0.0000 H   0  0  0  0  0  0  0  0  0  0  0  0
   11.8574    7.5602    0.0000 H   0  0  0  0  0  0  0  0  0  0  0  0
   10.9997   11.8868    0.0000 H   0  0  0  0  0  0  0  0  0  0  0  0
    9.9012   10.4805    0.0000 H   0  0  0  0  0  0  0  0  0  0  0  0
   13.9908   10.2378    0.0000 H   0  0  0  0  0  0  0  0  0  0  0  0
   14.3434   14.7240    0.0000 H   0  0  0  0  0  0  0  0  0  0  0  0
   11.7533   14.9275    0.0000 H   0  0  0  0  0  0  0  0  0  0  0  0
   10.2819   12.7862    0.0000 H   0  0  0  0  0  0  0  0  0  0  0  0
    7.1082    9.3272    0.0000 H   0  0  0  0  0  0  0  0  0  0  0  0
    6.1873    9.0361    0.0000 H   0  0  0  0  0  0  0  0  0  0  0  0
    2.9976    9.1247    0.0000 H   0  0  0  0  0  0  0  0  0  0  0  0
    3.3408    7.6880    0.0000 H   0  0  0  0  0  0  0  0  0  0  0  0
    5.5965   11.4279    0.0000 H   0  0  0  0  0  0  0  0  0  0  0  0
    6.2195    9.7558    0.0000 H   0  0  0  0  0  0  0  0  0  0  0  0
    2.3021   11.7827    0.0000 H   0  0  0  0  0  0  0  0  0  0  0  0
    2.7167   10.0471    0.0000 H   0  0  0  0  0  0  0  0  0  0  0  0
    5.4563   13.0932    0.0000 H   0  0  0  0  0  0  0  0  0  0  0  0
    2.1687   16.1659    0.0000 H   0  0  0  0  0  0  0  0  0  0  0  0
    0.3946   14.2678    0.0000 H   0  0  0  0  0  0  0  0  0  0  0  0
    1.1514   11.7824    0.0000 H   0  0  0  0  0  0  0  0  0  0  0  0
    1.8770    7.1444    0.0000 H   0  0  0  0  0  0  0  0  0  0  0  0
    1.5304    6.2429    0.0000 H   0  0  0  0  0  0  0  0  0  0  0  0
   -0.7014    4.1261    0.0000 H   0  0  0  0  0  0  0  0  0  0  0  0
    0.6265    3.1741    0.0000 H   0  0  0  0  0  0  0  0  0  0  0  0
   -0.3494    7.3443    0.0000 H   0  0  0  0  0  0  0  0  0  0  0  0
    0.9878    6.7168    0.0000 H   0  0  0  0  0  0  0  0  0  0  0  0
   -3.1164    5.0841    0.0000 H   0  0  0  0  0  0  0  0  0  0  0  0
   -1.7886    4.1321    0.0000 H   0  0  0  0  0  0  0  0  0  0  0  0
   -2.6339    8.3065    0.0000 H   0  0  0  0  0  0  0  0  0  0  0  0
   -6.5495    7.5464    0.0000 H   0  0  0  0  0  0  0  0  0  0  0  0
   -6.2109    5.1207    0.0000 H   0  0  0  0  0  0  0  0  0  0  0  0
   -4.1208    3.7552    0.0000 H   0  0  0  0  0  0  0  0  0  0  0  0
    0.3219    1.6935    0.0000 H   0  0  0  0  0  0  0  0  0  0  0  0
    2.9854   -2.1877    0.0000 H   0  0  0  0  0  0  0  0  0  0  0  0
    1.6725   -0.9880    0.0000 H   0  0  0  0  0  0  0  0  0  0  0  0
    4.6245   -3.0782    0.0000 H   0  0  0  0  0  0  0  0  0  0  0  0
    3.3595   -2.7445    0.0000 H   0  0  0  0  0  0  0  0  0  0  0  0
    6.2869   -3.5226    0.0000 H   0  0  0  0  0  0  0  0  0  0  0  0
    5.1461   -3.5000    0.0000 H   0  0  0  0  0  0  0  0  0  0  0  0
    7.3857   -3.6976    0.0000 H   0  0  0  0  0  0  0  0  0  0  0  0
    3.8287    0.2412    0.0000 H   0  0  0  0  0  0  0  0  0  0  0  0
    4.2048   -1.4520    0.0000 H   0  0  0  0  0  0  0  0  0  0  0  0
    4.5395   -1.9337    0.0000 H   0  0  0  0  0  0  0  0  0  0  0  0
    4.3450   -3.1777    0.0000 H   0  0  0  0  0  0  0  0  0  0  0  0
    4.5825   -3.7141    0.0000 H   0  0  0  0  0  0  0  0  0  0  0  0
    4.2765   -4.7608    0.0000 H   0  0  0  0  0  0  0  0  0  0  0  0
    4.2324   -5.7476    0.0000 H   0  0  0  0  0  0  0  0  0  0  0  0
    1.2846    4.1233    0.0000 H   0  0  0  0  0  0  0  0  0  0  0  0
    0.3411    4.7613    0.0000 H   0  0  0  0  0  0  0  0  0  0  0  0
   -0.3386    6.6824    0.0000 H   0  0  0  0  0  0  0  0  0  0  0  0
    0.6303    4.8587    0.0000 H   0  0  0  0  0  0  0  0  0  0  0  0
   -3.6325    6.0160    0.0000 H   0  0  0  0  0  0  0  0  0  0  0  0
   -3.0876    4.8192    0.0000 H   0  0  0  0  0  0  0  0  0  0  0  0
   -1.5255    8.8294    0.0000 H   0  0  0  0  0  0  0  0  0  0  0  0
   -0.6786    7.6191    0.0000 H   0  0  0  0  0  0  0  0  0  0  0  0
   -4.9647    7.9192    0.0000 H   0  0  0  0  0  0  0  0  0  0  0  0
   -4.8852   11.9071    0.0000 H   0  0  0  0  0  0  0  0  0  0  0  0
   -2.2880   11.9743    0.0000 H   0  0  0  0  0  0  0  0  0  0  0  0
   -0.9313    9.7586    0.0000 H   0  0  0  0  0  0  0  0  0  0  0  0
   -3.3704    6.2374    0.0000 H   0  0  0  0  0  0  0  0  0  0  0  0
   -4.6915    6.2801    0.0000 H   0  0  0  0  0  0  0  0  0  0  0  0
   -7.2483    6.7971    0.0000 H   0  0  0  0  0  0  0  0  0  0  0  0
   -7.3124    5.4837    0.0000 H   0  0  0  0  0  0  0  0  0  0  0  0
   -4.4909    8.7002    0.0000 H   0  0  0  0  0  0  0  0  0  0  0  0
   -4.1804    6.4062    0.0000 H   0  0  0  0  0  0  0  0  0  0  0  0
   -7.3411    9.5430    0.0000 H   0  0  0  0  0  0  0  0  0  0  0  0
   -7.4208    7.9111    0.0000 H   0  0  0  0  0  0  0  0  0  0  0  0
   -4.0469   10.4851    0.0000 H   0  0  0  0  0  0  0  0  0  0  0  0
   -6.5057   13.8479    0.0000 H   0  0  0  0  0  0  0  0  0  0  0  0
   -8.6543   12.3873    0.0000 H   0  0  0  0  0  0  0  0  0  0  0  0
   -8.4636    9.7962    0.0000 H   0  0  0  0  0  0  0  0  0  0  0  0
   -8.4405    5.5801    0.0000 H   0  0  0  0  0  0  0  0  0  0  0  0
   -9.2034    4.9018    0.0000 H   0  0  0  0  0  0  0  0  0  0  0  0
  -12.1782    4.0728    0.0000 H   0  0  0  0  0  0  0  0  0  0  0  0
  -11.3629    2.6569    0.0000 H   0  0  0  0  0  0  0  0  0  0  0  0
  -10.5224    6.9427    0.0000 H   0  0  0  0  0  0  0  0  0  0  0  0
   -9.3887    5.7662    0.0000 H   0  0  0  0  0  0  0  0  0  0  0  0
  -13.7394    6.1494    0.0000 H   0  0  0  0  0  0  0  0  0  0  0  0
  -12.7562    4.6603    0.0000 H   0  0  0  0  0  0  0  0  0  0  0  0
  -11.2237    8.4596    0.0000 H   0  0  0  0  0  0  0  0  0  0  0  0
  -15.3640   10.2226    0.0000 H   0  0  0  0  0  0  0  0  0  0  0  0
  -16.3818    7.8322    0.0000 H   0  0  0  0  0  0  0  0  0  0  0  0
  -14.8206    5.7555    0.0000 H   0  0  0  0  0  0  0  0  0  0  0  0
  -12.5218    2.2212    0.0000 H   0  0  0  0  0  0  0  0  0  0  0  0
  -12.7968    1.2381    0.0000 H   0  0  0  0  0  0  0  0  0  0  0  0
  -14.8512   -1.0676    0.0000 H   0  0  0  0  0  0  0  0  0  0  0  0
  -13.3998   -1.8179    0.0000 H   0  0  0  0  0  0  0  0  0  0  0  0
  -15.0098    2.2420    0.0000 H   0  0  0  0  0  0  0  0  0  0  0  0
  -13.4200    1.8652    0.0000 H   0  0  0  0  0  0  0  0  0  0  0  0
  -17.2873   -0.1646    0.0000 H   0  0  0  0  0  0  0  0  0  0  0  0
  -15.6551   -0.8858    0.0000 H   0  0  0  0  0  0  0  0  0  0  0  0
  -16.4199    3.1390    0.0000 H   0  0  0  0  0  0  0  0  0  0  0  0
  -20.8561    2.3837    0.0000 H   0  0  0  0  0  0  0  0  0  0  0  0
  -20.4200   -0.1775    0.0000 H   0  0  0  0  0  0  0  0  0  0  0  0
  -17.9839   -1.0805    0.0000 H   0  0  0  0  0  0  0  0  0  0  0  0
  -14.1392   -2.8109    0.0000 H   0  0  0  0  0  0  0  0  0  0  0  0
  -13.8390   -3.7866    0.0000 H   0  0  0  0  0  0  0  0  0  0  0  0
  -14.3207   -6.8370    0.0000 H   0  0  0  0  0  0  0  0  0  0  0  0
  -12.6941   -6.6836    0.0000 H   0  0  0  0  0  0  0  0  0  0  0  0
  -16.2435   -4.1386    0.0000 H   0  0  0  0  0  0  0  0  0  0  0  0
  -14.7024   -3.5961    0.0000 H   0  0  0  0  0  0  0  0  0  0  0  0
  -16.8583   -7.3944    0.0000 H   0  0  0  0  0  0  0  0  0  0  0  0
  -15.0953   -7.1187    0.0000 H   0  0  0  0  0  0  0  0  0  0  0  0
  -17.9147   -4.1464    0.0000 H   0  0  0  0  0  0  0  0  0  0  0  0
  -21.2383   -7.1801    0.0000 H   0  0  0  0  0  0  0  0  0  0  0  0
  -19.4867   -9.0990    0.0000 H   0  0  0  0  0  0  0  0  0  0  0  0
  -16.9492   -8.5416    0.0000 H   0  0  0  0  0  0  0  0  0  0  0  0
  -12.7793   -7.9187    0.0000 H   0  0  0  0  0  0  0  0  0  0  0  0
  -11.9993   -8.5772    0.0000 H   0  0  0  0  0  0  0  0  0  0  0  0
  -10.7553  -11.4038    0.0000 H   0  0  0  0  0  0  0  0  0  0  0  0
   -9.4699  -10.3953    0.0000 H   0  0  0  0  0  0  0  0  0  0  0  0
  -13.8318  -10.1732    0.0000 H   0  0  0  0  0  0  0  0  0  0  0  0
  -12.8285   -8.8837    0.0000 H   0  0  0  0  0  0  0  0  0  0  0  0
  -12.5887  -13.2446    0.0000 H   0  0  0  0  0  0  0  0  0  0  0  0
  -11.2546  -12.0595    0.0000 H   0  0  0  0  0  0  0  0  0  0  0  0
  -15.2334  -11.0833    0.0000 H   0  0  0  0  0  0  0  0  0  0  0  0
  -16.3892  -15.4323    0.0000 H   0  0  0  0  0  0  0  0  0  0  0  0
  -13.8783  -16.0996    0.0000 H   0  0  0  0  0  0  0  0  0  0  0  0
  -12.0449  -14.2588    0.0000 H   0  0  0  0  0  0  0  0  0  0  0  0
   -8.8738  -11.4803    0.0000 H   0  0  0  0  0  0  0  0  0  0  0  0
   -4.4618  -12.2429    0.0000 H   0  0  0  0  0  0  0  0  0  0  0  0
   -5.7180  -12.3293    0.0000 H   0  0  0  0  0  0  0  0  0  0  0  0
   -2.8752  -12.1281    0.0000 H   0  0  0  0  0  0  0  0  0  0  0  0
   -3.9444  -12.3427    0.0000 H   0  0  0  0  0  0  0  0  0  0  0  0
   -1.1911  -11.6071    0.0000 H   0  0  0  0  0  0  0  0  0  0  0  0
   -2.3834  -12.0119    0.0000 H   0  0  0  0  0  0  0  0  0  0  0  0
    0.3640  -10.7767    0.0000 H   0  0  0  0  0  0  0  0  0  0  0  0
   -0.7301  -11.3998    0.0000 H   0  0  0  0  0  0  0  0  0  0  0  0
    1.7339   -9.6670    0.0000 H   0  0  0  0  0  0  0  0  0  0  0  0
    0.7774  -10.4860    0.0000 H   0  0  0  0  0  0  0  0  0  0  0  0
    2.9014   -8.1379    0.0000 H   0  0  0  0  0  0  0  0  0  0  0  0
    2.0848   -9.3033    0.0000 H   0  0  0  0  0  0  0  0  0  0  0  0
    3.5592   -7.4010    0.0000 H   0  0  0  0  0  0  0  0  0  0  0  0
   -7.5539  -13.2397    0.0000 H   0  0  0  0  0  0  0  0  0  0  0  0
   -9.0250  -12.5288    0.0000 H   0  0  0  0  0  0  0  0  0  0  0  0
   -8.8605  -10.7519    0.0000 H   0  0  0  0  0  0  0  0  0  0  0  0
   -4.2812  -13.8772    0.0000 H   0  0  0  0  0  0  0  0  0  0  0  0
  1  2  1  0
  2  3  1  0
  3  4  2  0
  4  5  1  0
  5  6  2  0
  6  7  1  0
  7  8  2  0
  7  9  1  0
  9 10  1  0
 10 11  1  0
 11 12  2  0
  9 13  1  0
 13 14  1  0
 14 15  2  0
 15 16  1  0
 16 17  2  0
 17 18  1  0
 16 19  1  0
 14 20  1  0
 20 21  1  0
 21 22  2  0
 22 23  1  0
 23 24  2  0
 24 25  1  0
 25 26  2  0
 25 27  1  0
  1 28  2  0
  1 29  1  0
 29 30  1  0
 30 31  1  0
 31 32  1  0
 32 33  2  0
 32 34  1  0
 35 34  1  1
 35 36  1  0
 36 37  1  0
 37 38  1  0
 38 39  1  0
 35 40  1  0
 35 41  1  0
 41 42  2  0
 41 43  1  0
 43 44  1  0
 44 45  1  0
 45 46  1  0
 46 47  1  0
 47 48  1  0
 48 49  1  0
 49 50  2  3
 49 51  1  0
 44 52  1  0
 52 53  2  0
 52 54  1  0
 54 55  1  0
 55 56  1  0
 56 57  1  0
 57 58  1  0
 58 59  1  0
 59 60  1  0
 60 61  2  3
 60 62  1  0
 55 63  1  0
 63 64  2  0
 63 65  1  0
 65 66  1  0
 66 67  1  0
 67 68  1  0
 68 69  1  0
 69 70  1  0
 70 71  1  0
 71 72  2  3
 71 73  1  0
 66 74  1  0
 74 75  2  0
 74 76  1  0
 76 77  1  0
 77 78  1  0
 78 79  1  0
 79 80  1  0
 80 81  1  0
 77 82  1  0
 82 83  1  0
 83 84  1  0
 84 85  1  0
 77 86  1  0
 86 87  2  0
 86 88  1  0
 88 89  1  0
 89 90  1  0
 90 91  1  0
 91 92  1  0
 92 93  1  0
 93 94  1  0
 94 95  2  3
 94 96  1  0
 89 97  1  0
 97 98  2  0
 97 99  1  0
 99100  1  0
100101  1  0
101102  1  0
102103  1  0
103104  1  0
104105  1  0
105106  2  3
105107  1  0
100108  1  0
108109  2  0
108110  1  0
110111  1  0
111112  1  0
112113  1  0
113114  1  0
114115  1  0
115116  1  0
116117  2  3
116118  1  0
111119  1  0
119120  2  0
119121  1  0
121122  1  0
122123  1  0
123124  1  0
124125  1  0
125126  1  0
126127  1  0
127128  2  3
127129  1  0
122130  1  0
130131  2  0
130132  1  0
132133  1  0
133134  1  0
134135  1  0
135136  1  0
136137  1  0
137138  1  0
138139  2  3
138140  1  0
133141  1  0
141142  2  0
141143  1  0
143144  1  0
144145  1  0
145146  1  0
146147  1  0
147148  1  0
148149  1  0
149150  2  3
149151  1  0
144152  1  0
152153  2  0
152154  1  0
154155  1  0
155156  1  0
156157  1  0
157158  1  0
158159  1  0
159160  1  0
160161  1  0
161162  1  0
155163  1  0
155164  1  1
164165  2  0
164166  1  0
  8  3  1  0
 11  6  1  0
 39 81  2  0
 18 13  2  0
 85162  2  0
 22  9  1  0
 26 21  1  0
  2167  1  0
  4168  1  0
  5169  1  0
  8170  1  0
 15171  1  0
 17172  1  0
 18173  1  0
 19174  1  0
 23175  1  0
 24176  1  0
 26177  1  0
 27178  1  0
 29179  1  0
 30180  1  0
 30181  1  0
 31182  1  0
 31183  1  0
 34184  1  0
 36185  1  0
 36186  1  0
 37187  1  0
 37188  1  0
 38189  1  0
 38190  1  0
 39191  1  0
 40192  1  0
 40193  1  0
 40194  1  0
 43195  1  0
 44196  1  6
 45197  1  0
 45198  1  0
 46199  1  0
 46200  1  0
 47201  1  0
 47202  1  0
 48203  1  0
 50204  1  0
 51205  1  0
 51206  1  0
 54207  1  0
 55208  1  6
 56209  1  0
 56210  1  0
 57211  1  0
 57212  1  0
 58213  1  0
 58214  1  0
 59215  1  0
 61216  1  0
 62217  1  0
 62218  1  0
 65219  1  0
 66220  1  6
 67221  1  0
 67222  1  0
 68223  1  0
 68224  1  0
 69225  1  0
 69226  1  0
 70227  1  0
 72228  1  0
 73229  1  0
 73230  1  0
 76231  1  0
 78232  1  0
 78233  1  0
 79234  1  0
 79235  1  0
 80236  1  0
 80237  1  0
 81238  1  0
 82239  1  0
 82240  1  0
 83241  1  0
 83242  1  0
 84243  1  0
 84244  1  0
 85245  1  0
 88246  1  0
 89247  1  6
 90248  1  0
 90249  1  0
 91250  1  0
 91251  1  0
 92252  1  0
 92253  1  0
 93254  1  0
 95255  1  0
 96256  1  0
 96257  1  0
 99258  1  0
100259  1  6
101260  1  0
101261  1  0
102262  1  0
102263  1  0
103264  1  0
103265  1  0
104266  1  0
106267  1  0
107268  1  0
107269  1  0
110270  1  0
111271  1  6
112272  1  0
112273  1  0
113274  1  0
113275  1  0
114276  1  0
114277  1  0
115278  1  0
117279  1  0
118280  1  0
118281  1  0
121282  1  0
122283  1  6
123284  1  0
123285  1  0
124286  1  0
124287  1  0
125288  1  0
125289  1  0
126290  1  0
128291  1  0
129292  1  0
129293  1  0
132294  1  0
133295  1  6
134296  1  0
134297  1  0
135298  1  0
135299  1  0
136300  1  0
136301  1  0
137302  1  0
139303  1  0
140304  1  0
140305  1  0
143306  1  0
144307  1  6
145308  1  0
145309  1  0
146310  1  0
146311  1  0
147312  1  0
147313  1  0
148314  1  0
150315  1  0
151316  1  0
151317  1  0
154318  1  0
156319  1  0
156320  1  0
157321  1  0
157322  1  0
158323  1  0
158324  1  0
159325  1  0
159326  1  0
160327  1  0
160328  1  0
161329  1  0
161330  1  0
162331  1  0
163332  1  0
163333  1  0
163334  1  0
166335  1  0
M  END
