
     RDKit          2D

203205  0  0  0  0  0  0  0  0999 V2000
  -18.3465    0.5396    0.0000 N   0  0  0  0  0  0  0  0  0  0  0  0
  -17.0785   -0.2617    0.0000 C   0  0  0  0  0  0  0  0  0  0  0  0
  -15.7505    0.4358    0.0000 C   0  0  0  0  0  0  0  0  0  0  0  0
  -14.4825   -0.3656    0.0000 C   0  0  0  0  0  0  0  0  0  0  0  0
  -14.6787   -1.5646    0.0000 O   0  0  0  0  0  0  0  0  0  0  0  0
  -13.1545    0.3319    0.0000 N   0  0  0  0  0  0  0  0  0  0  0  0
  -11.8865   -0.4694    0.0000 C   0  0  0  0  0  0  0  0  0  0  0  0
  -12.8958   -1.5790    0.0000 C   0  0  0  0  0  0  0  0  0  0  0  0
  -12.4396   -3.0079    0.0000 C   0  0  0  0  0  0  0  0  0  0  0  0
  -13.4489   -4.1175    0.0000 C   0  0  0  0  0  0  0  0  0  0  0  0
  -12.9926   -5.5464    0.0000 N   0  0  0  0  0  0  0  0  0  0  0  0
  -14.0019   -6.6561    0.0000 C   0  0  0  0  0  0  0  0  0  0  0  0
  -13.5456   -8.0850    0.0000 N   0  0  0  0  0  0  0  0  0  0  0  0
  -15.4676   -6.3368    0.0000 N   0  0  0  0  0  0  0  0  0  0  0  0
  -10.4209   -0.7887    0.0000 C   0  0  0  0  0  0  0  0  0  0  0  0
   -9.9646   -2.2176    0.0000 O   0  0  0  0  0  0  0  0  0  0  0  0
   -9.4116    0.3209    0.0000 N   0  0  0  0  0  0  0  0  0  0  0  0
   -7.9459    0.0016    0.0000 C   0  0  0  0  0  0  0  0  0  0  0  0
   -7.8860    1.5004    0.0000 C   0  0  0  0  0  0  0  0  0  0  0  0
   -9.1540    2.3017    0.0000 C   0  0  0  0  0  0  0  0  0  0  0  0
   -9.0941    3.8005    0.0000 C   0  0  0  0  0  0  0  0  0  0  0  0
  -10.3621    4.6019    0.0000 C   0  0  0  0  0  0  0  0  0  0  0  0
  -10.3021    6.1007    0.0000 N   0  0  0  0  0  0  0  0  0  0  0  0
   -6.6779   -0.7997    0.0000 C   0  0  0  0  0  0  0  0  0  0  0  0
   -5.3499   -0.1022    0.0000 O   0  0  0  0  0  0  0  0  0  0  0  0
   -6.7379   -2.2985    0.0000 N   0  0  0  0  0  0  0  0  0  0  0  0
   -5.4698   -3.0998    0.0000 C   0  0  0  0  0  0  0  0  0  0  0  0
   -6.4792   -4.2094    0.0000 C   0  0  0  0  0  0  0  0  0  0  0  0
   -4.0042   -3.4191    0.0000 C   0  0  0  0  0  0  0  0  0  0  0  0
   -3.7255   -4.8930    0.0000 O   0  0  0  0  0  0  0  0  0  0  0  0
   -2.9949   -2.3095    0.0000 N   0  0  0  0  0  0  0  0  0  0  0  0
   -1.5292   -2.6288    0.0000 C   0  0  0  0  0  0  0  0  0  0  0  0
   -0.7989   -3.9390    0.0000 C   0  0  0  0  0  0  0  0  0  0  0  0
    0.2852   -4.9756    0.0000 C   0  0  0  0  0  0  0  0  0  0  0  0
    1.6267   -5.6467    0.0000 C   0  0  0  0  0  0  0  0  0  0  0  0
    3.1065   -5.8926    0.0000 C   0  0  0  0  0  0  0  0  0  0  0  0
   -2.5633   -3.7155    0.0000 C   0  0  0  0  0  0  0  0  0  0  0  0
   -1.8410   -1.1615    0.0000 C   0  0  0  0  0  0  0  0  0  0  0  0
   -3.3381   -1.0679    0.0000 O   0  0  0  0  0  0  0  0  0  0  0  0
   -1.7064    0.3324    0.0000 N   0  0  0  0  0  0  0  0  0  0  0  0
   -1.1375    1.7203    0.0000 C   0  0  0  0  0  0  0  0  0  0  0  0
   -2.6366    1.6681    0.0000 C   0  0  0  0  0  0  0  0  0  0  0  0
   -3.4313    2.9402    0.0000 C   0  0  0  0  0  0  0  0  0  0  0  0
   -4.9304    2.8880    0.0000 C   0  0  0  0  0  0  0  0  0  0  0  0
   -5.7252    4.1601    0.0000 N   0  0  0  0  0  0  0  0  0  0  0  0
   -7.2243    4.1079    0.0000 C   0  0  0  0  0  0  0  0  0  0  0  0
   -7.8581    5.4674    0.0000 N   0  0  0  0  0  0  0  0  0  0  0  0
   -7.5872    2.6525    0.0000 N   0  0  0  0  0  0  0  0  0  0  0  0
   -0.1847    2.8789    0.0000 C   0  0  0  0  0  0  0  0  0  0  0  0
   -1.1883    3.9937    0.0000 O   0  0  0  0  0  0  0  0  0  0  0  0
    1.0672    3.7051    0.0000 N   0  0  0  0  0  0  0  0  0  0  0  0
    2.5071    4.1256    0.0000 C   0  0  0  0  0  0  0  0  0  0  0  0
    1.5316    5.2651    0.0000 C   0  0  0  0  0  0  0  0  0  0  0  0
    2.0306    6.6796    0.0000 C   0  0  0  0  0  0  0  0  0  0  0  0
    1.0551    7.8191    0.0000 C   0  0  0  0  0  0  0  0  0  0  0  0
    2.9834    7.8382    0.0000 C   0  0  0  0  0  0  0  0  0  0  0  0
    4.0069    4.1031    0.0000 C   0  0  0  0  0  0  0  0  0  0  0  0
    4.2528    5.5828    0.0000 O   0  0  0  0  0  0  0  0  0  0  0  0
    5.4335    3.6394    0.0000 N   0  0  0  0  0  0  0  0  0  0  0  0
    6.6600    2.7759    0.0000 C   0  0  0  0  0  0  0  0  0  0  0  0
    6.9426    4.2490    0.0000 C   0  0  0  0  0  0  0  0  0  0  0  0
    8.3597    4.7408    0.0000 C   0  0  0  0  0  0  0  0  0  0  0  0
    9.4942    3.7594    0.0000 C   0  0  0  0  0  0  0  0  0  0  0  0
   10.9113    4.2512    0.0000 C   0  0  0  0  0  0  0  0  0  0  0  0
   11.1939    5.7243    0.0000 C   0  0  0  0  0  0  0  0  0  0  0  0
   10.0595    6.7057    0.0000 C   0  0  0  0  0  0  0  0  0  0  0  0
    8.6424    6.2139    0.0000 C   0  0  0  0  0  0  0  0  0  0  0  0
    7.5775    1.5892    0.0000 C   0  0  0  0  0  0  0  0  0  0  0  0
    8.9669    2.1544    0.0000 O   0  0  0  0  0  0  0  0  0  0  0  0
    8.1044    0.1848    0.0000 N   0  0  0  0  0  0  0  0  0  0  0  0
    8.1940   -1.3125    0.0000 C   0  0  0  0  0  0  0  0  0  0  0  0
    7.8382   -2.7697    0.0000 C   0  0  0  0  0  0  0  0  0  0  0  0
    7.0688   -4.0573    0.0000 C   0  0  0  0  0  0  0  0  0  0  0  0
    5.9540   -5.0609    0.0000 C   0  0  0  0  0  0  0  0  0  0  0  0
    4.5929   -5.6913    0.0000 C   0  0  0  0  0  0  0  0  0  0  0  0
    9.4797   -2.0851    0.0000 C   0  0  0  0  0  0  0  0  0  0  0  0
    9.5220   -0.6150    0.0000 C   0  0  0  0  0  0  0  0  0  0  0  0
    9.7642    0.8653    0.0000 O   0  0  0  0  0  0  0  0  0  0  0  0
   10.7900   -1.4163    0.0000 N   0  0  0  0  0  0  0  0  0  0  0  0
   12.1180   -0.7188    0.0000 C   0  0  0  0  0  0  0  0  0  0  0  0
   13.1273    0.3908    0.0000 C   0  0  0  0  0  0  0  0  0  0  0  0
   14.6209    0.2525    0.0000 O   0  0  0  0  0  0  0  0  0  0  0  0
   13.3860   -1.5202    0.0000 C   0  0  0  0  0  0  0  0  0  0  0  0
   14.7140   -0.8227    0.0000 O   0  0  0  0  0  0  0  0  0  0  0  0
   13.3260   -3.0190    0.0000 N   0  0  0  0  0  0  0  0  0  0  0  0
   14.5941   -3.8203    0.0000 C   0  0  0  0  0  0  0  0  0  0  0  0
   16.0597   -4.1396    0.0000 C   0  0  0  0  0  0  0  0  0  0  0  0
   17.0690   -3.0300    0.0000 C   0  0  0  0  0  0  0  0  0  0  0  0
   16.6127   -1.6011    0.0000 C   0  0  0  0  0  0  0  0  0  0  0  0
   17.6221   -0.4914    0.0000 C   0  0  0  0  0  0  0  0  0  0  0  0
   19.0877   -0.8107    0.0000 C   0  0  0  0  0  0  0  0  0  0  0  0
   20.0970    0.2989    0.0000 O   0  0  0  0  0  0  0  0  0  0  0  0
   19.5440   -2.2397    0.0000 C   0  0  0  0  0  0  0  0  0  0  0  0
   18.5346   -3.3493    0.0000 C   0  0  0  0  0  0  0  0  0  0  0  0
   14.5341   -5.3191    0.0000 C   0  0  0  0  0  0  0  0  0  0  0  0
   15.6950   -6.2690    0.0000 O   0  0  0  0  0  0  0  0  0  0  0  0
   13.2061   -6.0166    0.0000 O   0  0  0  0  0  0  0  0  0  0  0  0
  -19.6745   -0.1579    0.0000 H   0  0  0  0  0  0  0  0  0  0  0  0
  -18.2866    2.0384    0.0000 H   0  0  0  0  0  0  0  0  0  0  0  0
  -18.0878   -1.3713    0.0000 H   0  0  0  0  0  0  0  0  0  0  0  0
  -16.1610   -1.4484    0.0000 H   0  0  0  0  0  0  0  0  0  0  0  0
  -16.6680    1.6224    0.0000 H   0  0  0  0  0  0  0  0  0  0  0  0
  -14.7412    1.5454    0.0000 H   0  0  0  0  0  0  0  0  0  0  0  0
  -13.0946    1.8307    0.0000 H   0  0  0  0  0  0  0  0  0  0  0  0
  -11.3176    0.9185    0.0000 H   0  0  0  0  0  0  0  0  0  0  0  0
  -13.9715   -2.1440    0.0000 H   0  0  0  0  0  0  0  0  0  0  0  0
  -13.7541   -0.9015    0.0000 H   0  0  0  0  0  0  0  0  0  0  0  0
  -11.5221   -4.1946    0.0000 H   0  0  0  0  0  0  0  0  0  0  0  0
  -11.1116   -2.3104    0.0000 H   0  0  0  0  0  0  0  0  0  0  0  0
  -14.7769   -4.8150    0.0000 H   0  0  0  0  0  0  0  0  0  0  0  0
  -14.5042   -3.0515    0.0000 H   0  0  0  0  0  0  0  0  0  0  0  0
  -11.5270   -5.8657    0.0000 H   0  0  0  0  0  0  0  0  0  0  0  0
  -14.5550   -9.1946    0.0000 H   0  0  0  0  0  0  0  0  0  0  0  0
  -12.0800   -8.4043    0.0000 H   0  0  0  0  0  0  0  0  0  0  0  0
  -16.4769   -7.4464    0.0000 H   0  0  0  0  0  0  0  0  0  0  0  0
  -15.9238   -4.9078    0.0000 H   0  0  0  0  0  0  0  0  0  0  0  0
  -10.0386    1.6836    0.0000 H   0  0  0  0  0  0  0  0  0  0  0  0
   -8.5149   -1.3863    0.0000 H   0  0  0  0  0  0  0  0  0  0  0  0
   -7.4141    2.1429    0.0000 H   0  0  0  0  0  0  0  0  0  0  0  0
   -6.4702    1.0049    0.0000 H   0  0  0  0  0  0  0  0  0  0  0  0
  -10.6476    2.4400    0.0000 H   0  0  0  0  0  0  0  0  0  0  0  0
  -10.1826    1.2100    0.0000 H   0  0  0  0  0  0  0  0  0  0  0  0
   -8.5251    5.1885    0.0000 H   0  0  0  0  0  0  0  0  0  0  0  0
   -7.7493    3.1361    0.0000 H   0  0  0  0  0  0  0  0  0  0  0  0
  -11.8277    4.9212    0.0000 H   0  0  0  0  0  0  0  0  0  0  0  0
  -11.0960    3.2937    0.0000 H   0  0  0  0  0  0  0  0  0  0  0  0
  -11.5702    6.9020    0.0000 H   0  0  0  0  0  0  0  0  0  0  0  0
   -9.7332    7.4886    0.0000 H   0  0  0  0  0  0  0  0  0  0  0  0
   -8.8365    5.7814    0.0000 H   0  0  0  0  0  0  0  0  0  0  0  0
   -8.1409   -2.8289    0.0000 H   0  0  0  0  0  0  0  0  0  0  0  0
   -4.9009   -1.7119    0.0000 H   0  0  0  0  0  0  0  0  0  0  0  0
   -7.9728   -4.0712    0.0000 H   0  0  0  0  0  0  0  0  0  0  0  0
   -7.0481   -5.5973    0.0000 H   0  0  0  0  0  0  0  0  0  0  0  0
   -5.2111   -5.0107    0.0000 H   0  0  0  0  0  0  0  0  0  0  0  0
   -3.6219   -0.9469    0.0000 H   0  0  0  0  0  0  0  0  0  0  0  0
   -1.2979   -5.3535    0.0000 H   0  0  0  0  0  0  0  0  0  0  0  0
   -2.2669   -4.2471    0.0000 H   0  0  0  0  0  0  0  0  0  0  0  0
    0.0430   -6.4560    0.0000 H   0  0  0  0  0  0  0  0  0  0  0  0
   -1.0267   -5.7028    0.0000 H   0  0  0  0  0  0  0  0  0  0  0  0
    2.0112   -7.0966    0.0000 H   0  0  0  0  0  0  0  0  0  0  0  0
    0.5874   -6.7283    0.0000 H   0  0  0  0  0  0  0  0  0  0  0  0
    3.0839   -7.3924    0.0000 H   0  0  0  0  0  0  0  0  0  0  0  0
   -3.8861   -3.9899    0.0000 H   0  0  0  0  0  0  0  0  0  0  0  0
   -2.6592   -5.2945    0.0000 H   0  0  0  0  0  0  0  0  0  0  0  0
   -1.4628   -4.9831    0.0000 H   0  0  0  0  0  0  0  0  0  0  0  0
   -3.1636    0.6881    0.0000 H   0  0  0  0  0  0  0  0  0  0  0  0
   -1.6327    3.1362    0.0000 H   0  0  0  0  0  0  0  0  0  0  0  0
   -3.9485    0.9409    0.0000 H   0  0  0  0  0  0  0  0  0  0  0  0
   -2.6891    0.1690    0.0000 H   0  0  0  0  0  0  0  0  0  0  0  0
   -3.7431    4.4075    0.0000 H   0  0  0  0  0  0  0  0  0  0  0  0
   -2.1194    3.6674    0.0000 H   0  0  0  0  0  0  0  0  0  0  0  0
   -6.3212    2.3262    0.0000 H   0  0  0  0  0  0  0  0  0  0  0  0
   -4.7998    1.3937    0.0000 H   0  0  0  0  0  0  0  0  0  0  0  0
   -5.0209    5.4845    0.0000 H   0  0  0  0  0  0  0  0  0  0  0  0
   -9.4887    5.1265    0.0000 H   0  0  0  0  0  0  0  0  0  0  0  0
   -7.3147    6.7044    0.0000 H   0  0  0  0  0  0  0  0  0  0  0  0
   -9.3539    3.1743    0.0000 H   0  0  0  0  0  0  0  0  0  0  0  0
   -6.7549    1.7497    0.0000 H   0  0  0  0  0  0  0  0  0  0  0  0
    0.4368    5.0662    0.0000 H   0  0  0  0  0  0  0  0  0  0  0  0
    3.3053    5.3956    0.0000 H   0  0  0  0  0  0  0  0  0  0  0  0
    0.1451    5.8375    0.0000 H   0  0  0  0  0  0  0  0  0  0  0  0
    0.3268    4.3715    0.0000 H   0  0  0  0  0  0  0  0  0  0  0  0
    3.4171    6.1073    0.0000 H   0  0  0  0  0  0  0  0  0  0  0  0
    1.3781    9.2839    0.0000 H   0  0  0  0  0  0  0  0  0  0  0  0
   -0.2512    8.5562    0.0000 H   0  0  0  0  0  0  0  0  0  0  0  0
   -0.0317    6.7854    0.0000 H   0  0  0  0  0  0  0  0  0  0  0  0
    2.6316    9.2963    0.0000 H   0  0  0  0  0  0  0  0  0  0  0  0
    4.2750    8.6010    0.0000 H   0  0  0  0  0  0  0  0  0  0  0  0
    3.9589    6.6987    0.0000 H   0  0  0  0  0  0  0  0  0  0  0  0
    6.1045    4.9809    0.0000 H   0  0  0  0  0  0  0  0  0  0  0  0
    8.1190    3.1241    0.0000 H   0  0  0  0  0  0  0  0  0  0  0  0
    6.7044    5.7300    0.0000 H   0  0  0  0  0  0  0  0  0  0  0  0
    5.4928    4.6338    0.0000 H   0  0  0  0  0  0  0  0  0  0  0  0
    9.3932    2.2628    0.0000 H   0  0  0  0  0  0  0  0  0  0  0  0
   12.0457    3.2699    0.0000 H   0  0  0  0  0  0  0  0  0  0  0  0
   12.6110    6.2161    0.0000 H   0  0  0  0  0  0  0  0  0  0  0  0
   10.3421    8.1788    0.0000 H   0  0  0  0  0  0  0  0  0  0  0  0
    7.5080    7.1953    0.0000 H   0  0  0  0  0  0  0  0  0  0  0  0
    9.5227    0.6731    0.0000 H   0  0  0  0  0  0  0  0  0  0  0  0
    9.3353   -2.6764    0.0000 H   0  0  0  0  0  0  0  0  0  0  0  0
    8.6954   -4.0006    0.0000 H   0  0  0  0  0  0  0  0  0  0  0  0
    8.5269   -4.4095    0.0000 H   0  0  0  0  0  0  0  0  0  0  0  0
    7.6959   -5.4200    0.0000 H   0  0  0  0  0  0  0  0  0  0  0  0
    7.2435   -5.8272    0.0000 H   0  0  0  0  0  0  0  0  0  0  0  0
    5.9688   -6.5608    0.0000 H   0  0  0  0  0  0  0  0  0  0  0  0
    5.0134   -7.1312    0.0000 H   0  0  0  0  0  0  0  0  0  0  0  0
   10.8279   -1.9979    0.0000 H   0  0  0  0  0  0  0  0  0  0  0  0
    9.9921   -3.5818    0.0000 H   0  0  0  0  0  0  0  0  0  0  0  0
    8.7559   -3.5998    0.0000 H   0  0  0  0  0  0  0  0  0  0  0  0
   10.9132   -2.9113    0.0000 H   0  0  0  0  0  0  0  0  0  0  0  0
   11.2005    0.4678    0.0000 H   0  0  0  0  0  0  0  0  0  0  0  0
   13.6962    1.7787    0.0000 H   0  0  0  0  0  0  0  0  0  0  0  0
   11.8593    1.1921    0.0000 H   0  0  0  0  0  0  0  0  0  0  0  0
   15.6023    1.1811    0.0000 H   0  0  0  0  0  0  0  0  0  0  0  0
   11.9981   -3.7165    0.0000 H   0  0  0  0  0  0  0  0  0  0  0  0
   15.1630   -2.4324    0.0000 H   0  0  0  0  0  0  0  0  0  0  0  0
   17.3277   -4.9409    0.0000 H   0  0  0  0  0  0  0  0  0  0  0  0
   15.6642   -5.5865    0.0000 H   0  0  0  0  0  0  0  0  0  0  0  0
   15.1970   -1.1055    0.0000 H   0  0  0  0  0  0  0  0  0  0  0  0
   17.1658    0.9375    0.0000 H   0  0  0  0  0  0  0  0  0  0  0  0
   21.5626   -0.0204    0.0000 H   0  0  0  0  0  0  0  0  0  0  0  0
   21.0096   -2.5590    0.0000 H   0  0  0  0  0  0  0  0  0  0  0  0
   18.9909   -4.7782    0.0000 H   0  0  0  0  0  0  0  0  0  0  0  0
  1  2  1  0
  2  3  1  0
  3  4  1  0
  4  5  2  0
  4  6  1  0
  6  7  1  0
  7  8  1  0
  8  9  1  0
  9 10  1  0
 10 11  1  0
 11 12  1  0
 12 13  2  3
 12 14  1  0
  7 15  1  0
 15 16  2  0
 15 17  1  0
 17 18  1  0
 18 19  1  0
 19 20  1  0
 20 21  1  0
 21 22  1  0
 22 23  1  0
 18 24  1  0
 24 25  2  0
 24 26  1  0
 26 27  1  0
 27 28  1  0
 27 29  1  0
 29 30  2  0
 29 31  1  0
 32 31  1  6
 32 33  1  0
 33 34  1  0
 34 35  1  0
 35 36  1  0
 32 37  1  0
 32 38  1  0
 38 39  2  0
 38 40  1  0
 40 41  1  0
 41 42  1  0
 42 43  1  0
 43 44  1  0
 44 45  1  0
 45 46  1  0
 46 47  2  3
 46 48  1  0
 41 49  1  0
 49 50  2  0
 49 51  1  0
 51 52  1  0
 52 53  1  0
 53 54  1  0
 54 55  1  0
 54 56  1  0
 52 57  1  0
 57 58  2  0
 57 59  1  0
 59 60  1  0
 60 61  1  0
 61 62  1  0
 62 63  2  0
 63 64  1  0
 64 65  2  0
 65 66  1  0
 66 67  2  0
 60 68  1  0
 68 69  2  0
 68 70  1  0
 70 71  1  0
 71 72  1  0
 72 73  1  0
 73 74  1  0
 74 75  1  0
 71 76  1  0
 71 77  1  6
 77 78  2  0
 77 79  1  0
 79 80  1  0
 80 81  1  0
 81 82  1  0
 80 83  1  0
 83 84  2  0
 83 85  1  0
 85 86  1  0
 86 87  1  0
 87 88  1  0
 88 89  2  0
 89 90  1  0
 90 91  2  0
 91 92  1  0
 91 93  1  0
 93 94  2  0
 86 95  1  0
 95 96  2  0
 95 97  1  0
 67 62  1  0
 94 88  1  0
 36 75  2  0
  1 98  1  0
  1 99  1  0
  2100  1  0
  2101  1  0
  3102  1  0
  3103  1  0
  6104  1  0
  7105  1  6
  8106  1  0
  8107  1  0
  9108  1  0
  9109  1  0
 10110  1  0
 10111  1  0
 11112  1  0
 13113  1  0
 13114  1  0
 14115  1  0
 14116  1  0
 17117  1  0
 18118  1  1
 19119  1  0
 19120  1  0
 20121  1  0
 20122  1  0
 21123  1  0
 21124  1  0
 22125  1  0
 22126  1  0
 23127  1  0
 23128  1  0
 23129  1  0
 26130  1  0
 27131  1  6
 28132  1  0
 28133  1  0
 28134  1  0
 31135  1  0
 33136  1  0
 33137  1  0
 34138  1  0
 34139  1  0
 35140  1  0
 35141  1  0
 36142  1  0
 37143  1  0
 37144  1  0
 37145  1  0
 40146  1  0
 41147  1  1
 42148  1  0
 42149  1  0
 43150  1  0
 43151  1  0
 44152  1  0
 44153  1  0
 45154  1  0
 47155  1  0
 47156  1  0
 48157  1  0
 48158  1  0
 51159  1  0
 52160  1  1
 53161  1  0
 53162  1  0
 54163  1  0
 55164  1  0
 55165  1  0
 55166  1  0
 56167  1  0
 56168  1  0
 56169  1  0
 59170  1  0
 60171  1  1
 61172  1  0
 61173  1  0
 63174  1  0
 64175  1  0
 65176  1  0
 66177  1  0
 67178  1  0
 70179  1  0
 72180  1  0
 72181  1  0
 73182  1  0
 73183  1  0
 74184  1  0
 74185  1  0
 75186  1  0
 76187  1  0
 76188  1  0
 76189  1  0
 79190  1  0
 80191  1  1
 81192  1  0
 81193  1  0
 82194  1  0
 85195  1  0
 86196  1  1
 87197  1  0
 87198  1  0
 89199  1  0
 90200  1  0
 92201  1  0
 93202  1  0
 94203  1  0
M  CHG  4  13   1  23   1  47   1  97  -1
M  END
