
     RDKit          2D

324332  0  0  0  0  0  0  0  0999 V2000
   32.4057   -0.7764    0.0000 C   0  0  0  0  0  0  0  0  0  0  0  0
   33.7133   -0.0416    0.0000 N   0  0  0  0  0  0  0  0  0  0  0  0
   35.0036   -0.8066    0.0000 C   0  0  0  0  0  0  0  0  0  0  0  0
   34.9862   -2.3065    0.0000 C   0  0  0  0  0  0  0  0  0  0  0  0
   36.2764   -3.0715    0.0000 C   0  0  0  0  0  0  0  0  0  0  0  0
   37.5841   -2.3366    0.0000 C   0  0  0  0  0  0  0  0  0  0  0  0
   37.6015   -0.8367    0.0000 C   0  0  0  0  0  0  0  0  0  0  0  0
   36.3112   -0.0717    0.0000 C   0  0  0  0  0  0  0  0  0  0  0  0
   39.0333   -0.3898    0.0000 C   0  0  0  0  0  0  0  0  0  0  0  0
   39.9009   -1.6134    0.0000 O   0  0  0  0  0  0  0  0  0  0  0  0
   39.0052   -2.8167    0.0000 C   0  0  0  0  0  0  0  0  0  0  0  0
   39.4521   -4.2485    0.0000 O   0  0  0  0  0  0  0  0  0  0  0  0
   40.5041   -0.0950    0.0000 C   0  0  0  0  0  0  0  0  0  0  0  0
   40.9841    1.3262    0.0000 C   0  0  0  0  0  0  0  0  0  0  0  0
   42.4549    1.6210    0.0000 C   0  0  0  0  0  0  0  0  0  0  0  0
   43.4456    0.4947    0.0000 C   0  0  0  0  0  0  0  0  0  0  0  0
   42.9655   -0.9264    0.0000 C   0  0  0  0  0  0  0  0  0  0  0  0
   41.4948   -1.2212    0.0000 C   0  0  0  0  0  0  0  0  0  0  0  0
   44.9163    0.7895    0.0000 O   0  0  0  0  0  0  0  0  0  0  0  0
   39.9934    2.4524    0.0000 O   0  0  0  0  0  0  0  0  0  0  0  0
   38.5227    2.1576    0.0000 C   0  0  0  0  0  0  0  0  0  0  0  0
   38.0426    0.7365    0.0000 C   0  0  0  0  0  0  0  0  0  0  0  0
   36.7959    1.1049    0.0000 C   0  0  0  0  0  0  0  0  0  0  0  0
   36.2675    1.7056    0.0000 C   0  0  0  0  0  0  0  0  0  0  0  0
   36.5236    2.4635    0.0000 C   0  0  0  0  0  0  0  0  0  0  0  0
   37.3080    2.6207    0.0000 C   0  0  0  0  0  0  0  0  0  0  0  0
   35.0705    4.1154    0.0000 O   0  0  0  0  0  0  0  0  0  0  0  0
   32.3883   -2.2763    0.0000 S   0  0  0  0  0  0  0  0  0  0  0  0
   31.1154   -0.0114    0.0000 N   0  0  0  0  0  0  0  0  0  0  0  0
   29.8078   -0.7463    0.0000 C   0  0  0  0  0  0  0  0  0  0  0  0
   28.5175    0.0187    0.0000 C   0  0  0  0  0  0  0  0  0  0  0  0
   27.2099   -0.7162    0.0000 O   0  0  0  0  0  0  0  0  0  0  0  0
   25.9196    0.0489    0.0000 C   0  0  0  0  0  0  0  0  0  0  0  0
   24.6120   -0.6860    0.0000 O   0  0  0  0  0  0  0  0  0  0  0  0
   23.3217    0.0790    0.0000 C   0  0  0  0  0  0  0  0  0  0  0  0
   22.0141   -0.6559    0.0000 C   0  0  0  0  0  0  0  0  0  0  0  0
   20.7238    0.1091    0.0000 O   0  0  0  0  0  0  0  0  0  0  0  0
   19.4162   -0.6257    0.0000 C   0  0  0  0  0  0  0  0  0  0  0  0
   18.1259    0.1393    0.0000 C   0  0  0  0  0  0  0  0  0  0  0  0
   16.8183   -0.5956    0.0000 C   0  0  0  0  0  0  0  0  0  0  0  0
   16.8009   -2.0955    0.0000 O   0  0  0  0  0  0  0  0  0  0  0  0
   15.5280    0.1694    0.0000 N   0  0  0  0  0  0  0  0  0  0  0  0
   14.2204   -0.5655    0.0000 C   0  0  0  0  0  0  0  0  0  0  0  0
   13.2429   -1.7033    0.0000 C   0  0  0  0  0  0  0  0  0  0  0  0
   11.7688   -1.4257    0.0000 C   0  0  0  0  0  0  0  0  0  0  0  0
   10.7914   -2.5635    0.0000 C   0  0  0  0  0  0  0  0  0  0  0  0
    9.3173   -2.2859    0.0000 C   0  0  0  0  0  0  0  0  0  0  0  0
    8.3398   -3.4237    0.0000 N   0  0  0  0  0  0  0  0  0  0  0  0
   12.9301    0.1996    0.0000 C   0  0  0  0  0  0  0  0  0  0  0  0
   12.9475    1.6995    0.0000 O   0  0  0  0  0  0  0  0  0  0  0  0
   11.6225   -0.5353    0.0000 N   0  0  0  0  0  0  0  0  0  0  0  0
   10.3322    0.2297    0.0000 C   0  0  0  0  0  0  0  0  0  0  0  0
    9.3814    1.3899    0.0000 C   0  0  0  0  0  0  0  0  0  0  0  0
    9.9108    2.7934    0.0000 C   0  0  0  0  0  0  0  0  0  0  0  0
    8.9600    3.9535    0.0000 C   0  0  0  0  0  0  0  0  0  0  0  0
    9.4893    5.3570    0.0000 N   0  0  0  0  0  0  0  0  0  0  0  0
    7.4798    3.7102    0.0000 O   0  0  0  0  0  0  0  0  0  0  0  0
    9.0246   -0.5052    0.0000 C   0  0  0  0  0  0  0  0  0  0  0  0
    8.7169   -1.6806    0.0000 O   0  0  0  0  0  0  0  0  0  0  0  0
    7.7343    0.2598    0.0000 N   0  0  0  0  0  0  0  0  0  0  0  0
    6.4266   -0.4750    0.0000 C   0  0  0  0  0  0  0  0  0  0  0  0
    5.4492   -1.6128    0.0000 C   0  0  0  0  0  0  0  0  0  0  0  0
    3.9751   -1.3352    0.0000 C   0  0  0  0  0  0  0  0  0  0  0  0
    2.9977   -2.4730    0.0000 C   0  0  0  0  0  0  0  0  0  0  0  0
    1.5236   -2.1955    0.0000 C   0  0  0  0  0  0  0  0  0  0  0  0
    0.5461   -3.3333    0.0000 N   0  0  0  0  0  0  0  0  0  0  0  0
    5.1364    0.2900    0.0000 C   0  0  0  0  0  0  0  0  0  0  0  0
    5.1538    1.7899    0.0000 O   0  0  0  0  0  0  0  0  0  0  0  0
    3.8287   -0.4449    0.0000 N   0  0  0  0  0  0  0  0  0  0  0  0
    2.5385    0.3201    0.0000 C   0  0  0  0  0  0  0  0  0  0  0  0
    1.5877    1.4803    0.0000 C   0  0  0  0  0  0  0  0  0  0  0  0
    2.1171    2.8838    0.0000 C   0  0  0  0  0  0  0  0  0  0  0  0
    1.1663    4.0440    0.0000 C   0  0  0  0  0  0  0  0  0  0  0  0
    1.6956    5.4475    0.0000 N   0  0  0  0  0  0  0  0  0  0  0  0
    0.7448    6.6076    0.0000 C   0  0  0  0  0  0  0  0  0  0  0  0
    1.2742    8.0111    0.0000 N   0  0  0  0  0  0  0  0  0  0  0  0
   -0.7353    6.3643    0.0000 N   0  0  0  0  0  0  0  0  0  0  0  0
    1.2308   -0.4148    0.0000 C   0  0  0  0  0  0  0  0  0  0  0  0
    0.9232   -1.5902    0.0000 O   0  0  0  0  0  0  0  0  0  0  0  0
   -0.0594    0.3503    0.0000 N   0  0  0  0  0  0  0  0  0  0  0  0
   -1.3671   -0.3846    0.0000 C   0  0  0  0  0  0  0  0  0  0  0  0
   -2.3445   -1.5224    0.0000 C   0  0  0  0  0  0  0  0  0  0  0  0
   -3.8186   -1.2448    0.0000 C   0  0  0  0  0  0  0  0  0  0  0  0
   -4.7960   -2.3826    0.0000 C   0  0  0  0  0  0  0  0  0  0  0  0
   -6.2701   -2.1050    0.0000 C   0  0  0  0  0  0  0  0  0  0  0  0
   -7.2476   -3.2428    0.0000 N   0  0  0  0  0  0  0  0  0  0  0  0
   -2.6573    0.3804    0.0000 C   0  0  0  0  0  0  0  0  0  0  0  0
   -2.4772    1.7183    0.0000 O   0  0  0  0  0  0  0  0  0  0  0  0
   -3.9650   -0.3545    0.0000 N   0  0  0  0  0  0  0  0  0  0  0  0
   -5.2552    0.4105    0.0000 C   0  0  0  0  0  0  0  0  0  0  0  0
   -6.2060    1.5707    0.0000 C   0  0  0  0  0  0  0  0  0  0  0  0
   -5.6766    2.9742    0.0000 C   0  0  0  0  0  0  0  0  0  0  0  0
   -4.1965    3.2175    0.0000 C   0  0  0  0  0  0  0  0  0  0  0  0
   -3.2199    2.2855    0.0000 F   0  0  0  0  0  0  0  0  0  0  0  0
   -3.6672    4.6210    0.0000 C   0  0  0  0  0  0  0  0  0  0  0  0
   -2.1870    4.8643    0.0000 F   0  0  0  0  0  0  0  0  0  0  0  0
   -4.6179    5.7812    0.0000 C   0  0  0  0  0  0  0  0  0  0  0  0
   -4.0886    7.1847    0.0000 F   0  0  0  0  0  0  0  0  0  0  0  0
   -6.0981    5.5379    0.0000 C   0  0  0  0  0  0  0  0  0  0  0  0
   -7.0489    6.6981    0.0000 F   0  0  0  0  0  0  0  0  0  0  0  0
   -6.6274    4.1344    0.0000 C   0  0  0  0  0  0  0  0  0  0  0  0
   -8.1076    3.8911    0.0000 F   0  0  0  0  0  0  0  0  0  0  0  0
   -6.5629   -0.3243    0.0000 C   0  0  0  0  0  0  0  0  0  0  0  0
   -6.8705   -1.4997    0.0000 O   0  0  0  0  0  0  0  0  0  0  0  0
   -7.8531    0.4407    0.0000 N   0  0  0  0  0  0  0  0  0  0  0  0
   -9.1608   -0.2942    0.0000 C   0  0  0  0  0  0  0  0  0  0  0  0
  -10.1382   -1.4320    0.0000 C   0  0  0  0  0  0  0  0  0  0  0  0
  -11.5700   -1.8791    0.0000 O   0  0  0  0  0  0  0  0  0  0  0  0
  -10.4510    0.4708    0.0000 C   0  0  0  0  0  0  0  0  0  0  0  0
  -10.2509    1.9574    0.0000 O   0  0  0  0  0  0  0  0  0  0  0  0
  -11.7587   -0.2640    0.0000 N   0  0  0  0  0  0  0  0  0  0  0  0
  -13.0489    0.5010    0.0000 C   0  0  0  0  0  0  0  0  0  0  0  0
  -13.3291    1.9746    0.0000 C   0  0  0  0  0  0  0  0  0  0  0  0
  -14.0311    3.3001    0.0000 C   0  0  0  0  0  0  0  0  0  0  0  0
  -15.0927    4.3599    0.0000 C   0  0  0  0  0  0  0  0  0  0  0  0
  -16.4195    5.0596    0.0000 C   0  0  0  0  0  0  0  0  0  0  0  0
  -11.7251    1.2063    0.0000 C   0  0  0  0  0  0  0  0  0  0  0  0
  -13.2156   -0.9897    0.0000 C   0  0  0  0  0  0  0  0  0  0  0  0
  -12.4405   -1.4185    0.0000 O   0  0  0  0  0  0  0  0  0  0  0  0
  -13.8142   -2.3651    0.0000 N   0  0  0  0  0  0  0  0  0  0  0  0
  -14.7917   -3.5029    0.0000 C   0  0  0  0  0  0  0  0  0  0  0  0
  -14.5853   -4.9886    0.0000 C   0  0  0  0  0  0  0  0  0  0  0  0
  -13.1955   -5.5528    0.0000 C   0  0  0  0  0  0  0  0  0  0  0  0
  -12.9891   -7.0386    0.0000 C   0  0  0  0  0  0  0  0  0  0  0  0
  -11.5993   -7.6027    0.0000 C   0  0  0  0  0  0  0  0  0  0  0  0
  -10.4157   -6.6812    0.0000 C   0  0  0  0  0  0  0  0  0  0  0  0
  -10.6221   -5.1954    0.0000 C   0  0  0  0  0  0  0  0  0  0  0  0
  -12.0119   -4.6313    0.0000 C   0  0  0  0  0  0  0  0  0  0  0  0
  -16.0611   -4.3021    0.0000 C   0  0  0  0  0  0  0  0  0  0  0  0
  -15.4600   -5.6764    0.0000 O   0  0  0  0  0  0  0  0  0  0  0  0
  -17.5096   -4.6915    0.0000 N   0  0  0  0  0  0  0  0  0  0  0  0
  -19.0086   -4.6367    0.0000 C   0  0  0  0  0  0  0  0  0  0  0  0
  -20.0416   -5.7244    0.0000 C   0  0  0  0  0  0  0  0  0  0  0  0
  -19.6161   -7.1628    0.0000 C   0  0  0  0  0  0  0  0  0  0  0  0
  -20.6490   -8.2505    0.0000 C   0  0  0  0  0  0  0  0  0  0  0  0
  -20.2236   -9.6889    0.0000 C   0  0  0  0  0  0  0  0  0  0  0  0
  -18.7651  -10.0396    0.0000 C   0  0  0  0  0  0  0  0  0  0  0  0
  -17.7322   -8.9519    0.0000 C   0  0  0  0  0  0  0  0  0  0  0  0
  -18.1577   -7.5135    0.0000 C   0  0  0  0  0  0  0  0  0  0  0  0
  -20.4249   -4.1426    0.0000 C   0  0  0  0  0  0  0  0  0  0  0  0
  -21.1246   -5.4693    0.0000 O   0  0  0  0  0  0  0  0  0  0  0  0
  -21.6325   -3.2529    0.0000 N   0  0  0  0  0  0  0  0  0  0  0  0
  -22.5243   -2.0467    0.0000 C   0  0  0  0  0  0  0  0  0  0  0  0
  -24.0187   -1.9173    0.0000 C   0  0  0  0  0  0  0  0  0  0  0  0
  -24.8780   -3.1468    0.0000 C   0  0  0  0  0  0  0  0  0  0  0  0
  -26.3724   -3.0173    0.0000 C   0  0  0  0  0  0  0  0  0  0  0  0
  -27.2317   -4.2468    0.0000 C   0  0  0  0  0  0  0  0  0  0  0  0
  -28.7261   -4.1174    0.0000 N   0  0  0  0  0  0  0  0  0  0  0  0
  -23.0209   -0.6313    0.0000 C   0  0  0  0  0  0  0  0  0  0  0  0
  -24.4946   -0.9115    0.0000 O   0  0  0  0  0  0  0  0  0  0  0  0
  -23.0783    0.8676    0.0000 N   0  0  0  0  0  0  0  0  0  0  0  0
  -22.6914    2.3168    0.0000 C   0  0  0  0  0  0  0  0  0  0  0  0
  -21.8944    3.5876    0.0000 C   0  0  0  0  0  0  0  0  0  0  0  0
  -20.7583    4.5670    0.0000 C   0  0  0  0  0  0  0  0  0  0  0  0
  -19.3840    5.1680    0.0000 C   0  0  0  0  0  0  0  0  0  0  0  0
  -17.8936    5.3372    0.0000 C   0  0  0  0  0  0  0  0  0  0  0  0
  -24.1715    2.0735    0.0000 C   0  0  0  0  0  0  0  0  0  0  0  0
  -23.5219    3.5659    0.0000 C   0  0  0  0  0  0  0  0  0  0  0  0
  -23.2004    5.0310    0.0000 O   0  0  0  0  0  0  0  0  0  0  0  0
  -25.0189    3.4711    0.0000 N   0  0  0  0  0  0  0  0  0  0  0  0
  -25.8495    4.7202    0.0000 C   0  0  0  0  0  0  0  0  0  0  0  0
  -26.2027    6.1780    0.0000 C   0  0  0  0  0  0  0  0  0  0  0  0
  -25.1168    7.2128    0.0000 C   0  0  0  0  0  0  0  0  0  0  0  0
  -25.4701    8.6707    0.0000 C   0  0  0  0  0  0  0  0  0  0  0  0
  -23.7425    7.8139    0.0000 C   0  0  0  0  0  0  0  0  0  0  0  0
  -27.3465    4.6255    0.0000 C   0  0  0  0  0  0  0  0  0  0  0  0
  -28.3231    5.7640    0.0000 O   0  0  0  0  0  0  0  0  0  0  0  0
  -28.0129    3.2817    0.0000 O   0  0  0  0  0  0  0  0  0  0  0  0
   33.5478    1.4493    0.0000 H   0  0  0  0  0  0  0  0  0  0  0  0
   33.6785   -3.0414    0.0000 H   0  0  0  0  0  0  0  0  0  0  0  0
   36.2590   -4.5714    0.0000 H   0  0  0  0  0  0  0  0  0  0  0  0
   36.0309    1.1105    0.0000 H   0  0  0  0  0  0  0  0  0  0  0  0
   42.9349    3.0421    0.0000 H   0  0  0  0  0  0  0  0  0  0  0  0
   43.9562   -2.0527    0.0000 H   0  0  0  0  0  0  0  0  0  0  0  0
   41.0147   -2.6423    0.0000 H   0  0  0  0  0  0  0  0  0  0  0  0
   45.9070   -0.3368    0.0000 H   0  0  0  0  0  0  0  0  0  0  0  0
   36.0919   -0.9794    0.0000 H   0  0  0  0  0  0  0  0  0  0  0  0
   34.0855    1.4546    0.0000 H   0  0  0  0  0  0  0  0  0  0  0  0
   38.0120    4.7050    0.0000 H   0  0  0  0  0  0  0  0  0  0  0  0
   35.5506    5.5365    0.0000 H   0  0  0  0  0  0  0  0  0  0  0  0
   31.1328    1.4885    0.0000 H   0  0  0  0  0  0  0  0  0  0  0  0
   28.8303   -1.8841    0.0000 H   0  0  0  0  0  0  0  0  0  0  0  0
   30.7585   -1.9065    0.0000 H   0  0  0  0  0  0  0  0  0  0  0  0
   27.7152    1.2861    0.0000 H   0  0  0  0  0  0  0  0  0  0  0  0
   29.4950    1.1565    0.0000 H   0  0  0  0  0  0  0  0  0  0  0  0
   25.1173    1.3163    0.0000 H   0  0  0  0  0  0  0  0  0  0  0  0
   26.7511    1.2973    0.0000 H   0  0  0  0  0  0  0  0  0  0  0  0
   22.3709    1.2392    0.0000 H   0  0  0  0  0  0  0  0  0  0  0  0
   24.1532    1.3275    0.0000 H   0  0  0  0  0  0  0  0  0  0  0  0
   21.1826   -1.9043    0.0000 H   0  0  0  0  0  0  0  0  0  0  0  0
   22.9648   -1.8161    0.0000 H   0  0  0  0  0  0  0  0  0  0  0  0
   18.4387   -1.7635    0.0000 H   0  0  0  0  0  0  0  0  0  0  0  0
   20.2184   -1.8932    0.0000 H   0  0  0  0  0  0  0  0  0  0  0  0
   17.1751    1.2995    0.0000 H   0  0  0  0  0  0  0  0  0  0  0  0
   19.1034    1.2771    0.0000 H   0  0  0  0  0  0  0  0  0  0  0  0
   15.5454    1.6693    0.0000 H   0  0  0  0  0  0  0  0  0  0  0  0
   15.1711   -1.7256    0.0000 H   0  0  0  0  0  0  0  0  0  0  0  0
   12.8886   -3.1608    0.0000 H   0  0  0  0  0  0  0  0  0  0  0  0
   14.5332   -2.4683    0.0000 H   0  0  0  0  0  0  0  0  0  0  0  0
   10.5814   -0.5091    0.0000 H   0  0  0  0  0  0  0  0  0  0  0  0
   11.5771    0.0620    0.0000 H   0  0  0  0  0  0  0  0  0  0  0  0
   10.2620   -3.9670    0.0000 H   0  0  0  0  0  0  0  0  0  0  0  0
   11.9787   -3.4801    0.0000 H   0  0  0  0  0  0  0  0  0  0  0  0
    7.9434   -1.6838    0.0000 H   0  0  0  0  0  0  0  0  0  0  0  0
    9.6716   -0.8283    0.0000 H   0  0  0  0  0  0  0  0  0  0  0  0
    6.9106   -2.9685    0.0000 H   0  0  0  0  0  0  0  0  0  0  0  0
    8.8365   -4.8391    0.0000 H   0  0  0  0  0  0  0  0  0  0  0  0
   11.2426   -1.9864    0.0000 H   0  0  0  0  0  0  0  0  0  0  0  0
   11.4411    1.2399    0.0000 H   0  0  0  0  0  0  0  0  0  0  0  0
    8.1940    2.3065    0.0000 H   0  0  0  0  0  0  0  0  0  0  0  0
    8.1577    0.5224    0.0000 H   0  0  0  0  0  0  0  0  0  0  0  0
   10.8882    3.9312    0.0000 H   0  0  0  0  0  0  0  0  0  0  0  0
   11.2846    2.1913    0.0000 H   0  0  0  0  0  0  0  0  0  0  0  0
    8.5385    6.5172    0.0000 H   0  0  0  0  0  0  0  0  0  0  0  0
   10.9695    5.6004    0.0000 H   0  0  0  0  0  0  0  0  0  0  0  0
    7.5687    1.7507    0.0000 H   0  0  0  0  0  0  0  0  0  0  0  0
    7.2289   -1.7425    0.0000 H   0  0  0  0  0  0  0  0  0  0  0  0
    5.0949   -3.0704    0.0000 H   0  0  0  0  0  0  0  0  0  0  0  0
    6.8231   -2.2149    0.0000 H   0  0  0  0  0  0  0  0  0  0  0  0
    2.7877   -0.4187    0.0000 H   0  0  0  0  0  0  0  0  0  0  0  0
    3.7834    0.1525    0.0000 H   0  0  0  0  0  0  0  0  0  0  0  0
    2.4683   -3.8765    0.0000 H   0  0  0  0  0  0  0  0  0  0  0  0
    4.1850   -3.3896    0.0000 H   0  0  0  0  0  0  0  0  0  0  0  0
    0.1497   -1.5934    0.0000 H   0  0  0  0  0  0  0  0  0  0  0  0
    1.8779   -0.7379    0.0000 H   0  0  0  0  0  0  0  0  0  0  0  0
   -0.8831   -2.8781    0.0000 H   0  0  0  0  0  0  0  0  0  0  0  0
    1.0428   -4.7487    0.0000 H   0  0  0  0  0  0  0  0  0  0  0  0
    3.4489   -1.8960    0.0000 H   0  0  0  0  0  0  0  0  0  0  0  0
    3.6473    1.3303    0.0000 H   0  0  0  0  0  0  0  0  0  0  0  0
    0.2975    2.2453    0.0000 H   0  0  0  0  0  0  0  0  0  0  0  0
    0.3640    0.6128    0.0000 H   0  0  0  0  0  0  0  0  0  0  0  0
    3.0945    4.0216    0.0000 H   0  0  0  0  0  0  0  0  0  0  0  0
    3.4909    2.2818    0.0000 H   0  0  0  0  0  0  0  0  0  0  0  0
   -0.1240    4.8090    0.0000 H   0  0  0  0  0  0  0  0  0  0  0  0
    0.0574    3.0338    0.0000 H   0  0  0  0  0  0  0  0  0  0  0  0
    3.1758    5.6908    0.0000 H   0  0  0  0  0  0  0  0  0  0  0  0
    0.3234    9.1713    0.0000 H   0  0  0  0  0  0  0  0  0  0  0  0
   -1.6861    7.5245    0.0000 H   0  0  0  0  0  0  0  0  0  0  0  0
   -1.2646    4.9608    0.0000 H   0  0  0  0  0  0  0  0  0  0  0  0
   -0.2250    1.8411    0.0000 H   0  0  0  0  0  0  0  0  0  0  0  0
   -0.5648   -1.6520    0.0000 H   0  0  0  0  0  0  0  0  0  0  0  0
   -2.6988   -2.9800    0.0000 H   0  0  0  0  0  0  0  0  0  0  0  0
   -0.9706   -2.1245    0.0000 H   0  0  0  0  0  0  0  0  0  0  0  0
   -5.0060   -0.3282    0.0000 H   0  0  0  0  0  0  0  0  0  0  0  0
   -4.0103    0.2429    0.0000 H   0  0  0  0  0  0  0  0  0  0  0  0
   -5.3254   -3.7861    0.0000 H   0  0  0  0  0  0  0  0  0  0  0  0
   -3.6087   -3.2992    0.0000 H   0  0  0  0  0  0  0  0  0  0  0  0
   -7.6440   -1.5030    0.0000 H   0  0  0  0  0  0  0  0  0  0  0  0
   -5.9158   -0.6475    0.0000 H   0  0  0  0  0  0  0  0  0  0  0  0
   -8.6768   -2.7876    0.0000 H   0  0  0  0  0  0  0  0  0  0  0  0
   -6.7509   -4.6582    0.0000 H   0  0  0  0  0  0  0  0  0  0  0  0
   -4.3448   -1.8056    0.0000 H   0  0  0  0  0  0  0  0  0  0  0  0
   -4.2778    1.5484    0.0000 H   0  0  0  0  0  0  0  0  0  0  0  0
   -7.3934    2.4873    0.0000 H   0  0  0  0  0  0  0  0  0  0  0  0
   -7.4297    0.7032    0.0000 H   0  0  0  0  0  0  0  0  0  0  0  0
   -8.0187    1.9315    0.0000 H   0  0  0  0  0  0  0  0  0  0  0  0
   -8.3585   -1.5616    0.0000 H   0  0  0  0  0  0  0  0  0  0  0  0
  -10.6676   -2.8355    0.0000 H   0  0  0  0  0  0  0  0  0  0  0  0
   -8.7643   -2.0340    0.0000 H   0  0  0  0  0  0  0  0  0  0  0  0
  -12.5318   -2.4134    0.0000 H   0  0  0  0  0  0  0  0  0  0  0  0
  -11.7761   -1.7639    0.0000 H   0  0  0  0  0  0  0  0  0  0  0  0
  -11.8388    1.8042    0.0000 H   0  0  0  0  0  0  0  0  0  0  0  0
  -12.4095    3.1597    0.0000 H   0  0  0  0  0  0  0  0  0  0  0  0
  -12.6015    3.7543    0.0000 H   0  0  0  0  0  0  0  0  0  0  0  0
  -13.3346    4.6286    0.0000 H   0  0  0  0  0  0  0  0  0  0  0  0
  -13.7654    5.0587    0.0000 H   0  0  0  0  0  0  0  0  0  0  0  0
  -15.0005    5.8571    0.0000 H   0  0  0  0  0  0  0  0  0  0  0  0
  -15.9253    6.4759    0.0000 H   0  0  0  0  0  0  0  0  0  0  0  0
  -11.5469    2.8627    0.0000 H   0  0  0  0  0  0  0  0  0  0  0  0
  -10.4490    1.9127    0.0000 H   0  0  0  0  0  0  0  0  0  0  0  0
  -10.9108    0.1697    0.0000 H   0  0  0  0  0  0  0  0  0  0  0  0
  -12.5434   -3.1621    0.0000 H   0  0  0  0  0  0  0  0  0  0  0  0
  -13.3525   -3.9259    0.0000 H   0  0  0  0  0  0  0  0  0  0  0  0
  -14.8996   -6.4554    0.0000 H   0  0  0  0  0  0  0  0  0  0  0  0
  -16.0530   -5.2982    0.0000 H   0  0  0  0  0  0  0  0  0  0  0  0
  -14.1726   -7.9601    0.0000 H   0  0  0  0  0  0  0  0  0  0  0  0
  -11.3929   -9.0885    0.0000 H   0  0  0  0  0  0  0  0  0  0  0  0
   -9.0259   -7.2453    0.0000 H   0  0  0  0  0  0  0  0  0  0  0  0
   -9.4386   -4.2739    0.0000 H   0  0  0  0  0  0  0  0  0  0  0  0
  -12.0356   -3.1314    0.0000 H   0  0  0  0  0  0  0  0  0  0  0  0
  -17.1600   -6.1502    0.0000 H   0  0  0  0  0  0  0  0  0  0  0  0
  -18.4420   -6.0256    0.0000 H   0  0  0  0  0  0  0  0  0  0  0  0
  -21.3842   -6.3932    0.0000 H   0  0  0  0  0  0  0  0  0  0  0  0
  -21.1987   -4.7699    0.0000 H   0  0  0  0  0  0  0  0  0  0  0  0
  -22.1074   -7.8998    0.0000 H   0  0  0  0  0  0  0  0  0  0  0  0
  -21.2565  -10.7765    0.0000 H   0  0  0  0  0  0  0  0  0  0  0  0
  -18.3397  -11.4780    0.0000 H   0  0  0  0  0  0  0  0  0  0  0  0
  -16.2738   -9.3026    0.0000 H   0  0  0  0  0  0  0  0  0  0  0  0
  -16.9998   -6.5599    0.0000 H   0  0  0  0  0  0  0  0  0  0  0  0
  -22.6923   -4.3144    0.0000 H   0  0  0  0  0  0  0  0  0  0  0  0
  -23.0919   -3.4352    0.0000 H   0  0  0  0  0  0  0  0  0  0  0  0
  -25.2914   -1.1235    0.0000 H   0  0  0  0  0  0  0  0  0  0  0  0
  -23.9939   -0.4175    0.0000 H   0  0  0  0  0  0  0  0  0  0  0  0
  -25.0854   -4.6324    0.0000 H   0  0  0  0  0  0  0  0  0  0  0  0
  -23.6053   -3.9406    0.0000 H   0  0  0  0  0  0  0  0  0  0  0  0
  -27.7324   -2.3846    0.0000 H   0  0  0  0  0  0  0  0  0  0  0  0
  -26.1650   -1.5317    0.0000 H   0  0  0  0  0  0  0  0  0  0  0  0
  -27.6187   -5.6960    0.0000 H   0  0  0  0  0  0  0  0  0  0  0  0
  -25.9590   -5.0406    0.0000 H   0  0  0  0  0  0  0  0  0  0  0  0
  -29.5854   -5.3468    0.0000 H   0  0  0  0  0  0  0  0  0  0  0  0
  -29.3612   -2.7585    0.0000 H   0  0  0  0  0  0  0  0  0  0  0  0
  -24.5690    1.0342    0.0000 H   0  0  0  0  0  0  0  0  0  0  0  0
  -22.3199    5.0259    0.0000 H   0  0  0  0  0  0  0  0  0  0  0  0
  -23.2870    4.1449    0.0000 H   0  0  0  0  0  0  0  0  0  0  0  0
  -20.9239    6.0578    0.0000 H   0  0  0  0  0  0  0  0  0  0  0  0
  -21.9248    5.5100    0.0000 H   0  0  0  0  0  0  0  0  0  0  0  0
  -18.9252    6.5961    0.0000 H   0  0  0  0  0  0  0  0  0  0  0  0
  -20.3662    6.3017    0.0000 H   0  0  0  0  0  0  0  0  0  0  0  0
  -17.8388    6.8362    0.0000 H   0  0  0  0  0  0  0  0  0  0  0  0
  -25.3748    2.9691    0.0000 H   0  0  0  0  0  0  0  0  0  0  0  0
  -25.3798    1.1847    0.0000 H   0  0  0  0  0  0  0  0  0  0  0  0
  -24.0321    0.5800    0.0000 H   0  0  0  0  0  0  0  0  0  0  0  0
  -25.8442    2.2186    0.0000 H   0  0  0  0  0  0  0  0  0  0  0  0
  -24.4121    5.1492    0.0000 H   0  0  0  0  0  0  0  0  0  0  0  0
  -27.1793    7.3165    0.0000 H   0  0  0  0  0  0  0  0  0  0  0  0
  -27.6400    5.7490    0.0000 H   0  0  0  0  0  0  0  0  0  0  0  0
  -24.1402    6.0743    0.0000 H   0  0  0  0  0  0  0  0  0  0  0  0
  -24.5184    9.8301    0.0000 H   0  0  0  0  0  0  0  0  0  0  0  0
  -26.3006    9.9197    0.0000 H   0  0  0  0  0  0  0  0  0  0  0  0
  -26.9074    8.2416    0.0000 H   0  0  0  0  0  0  0  0  0  0  0  0
  -23.3954    9.2731    0.0000 H   0  0  0  0  0  0  0  0  0  0  0  0
  -22.2455    7.9086    0.0000 H   0  0  0  0  0  0  0  0  0  0  0  0
  -23.3892    6.3561    0.0000 H   0  0  0  0  0  0  0  0  0  0  0  0
  -29.5099    3.1869    0.0000 H   0  0  0  0  0  0  0  0  0  0  0  0
  1  2  1  0
  2  3  1  0
  3  4  2  0
  4  5  1  0
  5  6  2  0
  6  7  1  0
  7  8  2  0
  7  9  1  0
  9 10  1  0
 10 11  1  0
 11 12  2  0
  9 13  1  0
 13 14  1  0
 14 15  2  0
 15 16  1  0
 16 17  2  0
 17 18  1  0
 16 19  1  0
 14 20  1  0
 20 21  1  0
 21 22  2  0
 22 23  1  0
 23 24  2  0
 24 25  1  0
 25 26  2  0
 25 27  1  0
  1 28  2  0
  1 29  1  0
 29 30  1  0
 30 31  1  0
 31 32  1  0
 32 33  1  0
 33 34  1  0
 34 35  1  0
 35 36  1  0
 36 37  1  0
 37 38  1  0
 38 39  1  0
 39 40  1  0
 40 41  2  0
 40 42  1  0
 42 43  1  0
 43 44  1  0
 44 45  1  0
 45 46  1  0
 46 47  1  0
 47 48  1  0
 43 49  1  0
 49 50  2  0
 49 51  1  0
 51 52  1  0
 52 53  1  0
 53 54  1  0
 54 55  1  0
 55 56  1  0
 55 57  2  0
 52 58  1  0
 58 59  2  0
 58 60  1  0
 60 61  1  0
 61 62  1  0
 62 63  1  0
 63 64  1  0
 64 65  1  0
 65 66  1  0
 61 67  1  0
 67 68  2  0
 67 69  1  0
 69 70  1  0
 70 71  1  0
 71 72  1  0
 72 73  1  0
 73 74  1  0
 74 75  1  0
 75 76  2  3
 75 77  1  0
 70 78  1  0
 78 79  2  0
 78 80  1  0
 80 81  1  0
 81 82  1  0
 82 83  1  0
 83 84  1  0
 84 85  1  0
 85 86  1  0
 81 87  1  0
 87 88  2  0
 87 89  1  0
 89 90  1  0
 90 91  1  0
 91 92  1  0
 92 93  2  0
 93 94  1  0
 93 95  1  0
 95 96  1  0
 95 97  2  0
 97 98  1  0
 97 99  1  0
 99100  1  0
 99101  2  0
101102  1  0
 90103  1  0
103104  2  0
103105  1  0
105106  1  0
106107  1  0
107108  1  0
106109  1  0
109110  2  0
109111  1  0
112111  1  6
112113  1  0
113114  1  0
114115  1  0
115116  1  0
112117  1  0
112118  1  0
118119  2  0
118120  1  0
120121  1  0
121122  1  0
122123  1  0
123124  2  0
124125  1  0
125126  2  0
126127  1  0
127128  2  0
121129  1  0
129130  2  0
129131  1  0
131132  1  0
132133  1  0
133134  1  0
134135  2  0
135136  1  0
136137  2  0
137138  1  0
138139  2  0
132140  1  0
140141  2  0
140142  1  0
142143  1  0
143144  1  0
144145  1  0
145146  1  0
146147  1  0
147148  1  0
143149  1  0
149150  2  0
149151  1  0
151152  1  0
152153  1  0
153154  1  0
154155  1  0
155156  1  0
152157  1  0
152158  1  6
158159  2  0
158160  1  0
160161  1  0
161162  1  0
162163  1  0
163164  1  0
163165  1  0
161166  1  0
166167  2  0
166168  1  0
  8  3  1  0
101 92  1  0
128123  1  0
139134  1  0
 11  6  1  0
116156  2  0
 18 13  2  0
 22  9  1  0
 26 21  1  0
  2169  1  0
  4170  1  0
  5171  1  0
  8172  1  0
 15173  1  0
 17174  1  0
 18175  1  0
 19176  1  0
 23177  1  0
 24178  1  0
 26179  1  0
 27180  1  0
 29181  1  0
 30182  1  0
 30183  1  0
 31184  1  0
 31185  1  0
 33186  1  0
 33187  1  0
 35188  1  0
 35189  1  0
 36190  1  0
 36191  1  0
 38192  1  0
 38193  1  0
 39194  1  0
 39195  1  0
 42196  1  0
 43197  1  1
 44198  1  0
 44199  1  0
 45200  1  0
 45201  1  0
 46202  1  0
 46203  1  0
 47204  1  0
 47205  1  0
 48206  1  0
 48207  1  0
 51208  1  0
 52209  1  6
 53210  1  0
 53211  1  0
 54212  1  0
 54213  1  0
 56214  1  0
 56215  1  0
 60216  1  0
 61217  1  1
 62218  1  0
 62219  1  0
 63220  1  0
 63221  1  0
 64222  1  0
 64223  1  0
 65224  1  0
 65225  1  0
 66226  1  0
 66227  1  0
 69228  1  0
 70229  1  6
 71230  1  0
 71231  1  0
 72232  1  0
 72233  1  0
 73234  1  0
 73235  1  0
 74236  1  0
 76237  1  0
 77238  1  0
 77239  1  0
 80240  1  0
 81241  1  1
 82242  1  0
 82243  1  0
 83244  1  0
 83245  1  0
 84246  1  0
 84247  1  0
 85248  1  0
 85249  1  0
 86250  1  0
 86251  1  0
 89252  1  0
 90253  1  1
 91254  1  0
 91255  1  0
105256  1  0
106257  1  1
107258  1  0
107259  1  0
108260  1  0
111261  1  0
113262  1  0
113263  1  0
114264  1  0
114265  1  0
115266  1  0
115267  1  0
116268  1  0
117269  1  0
117270  1  0
117271  1  0
120272  1  0
121273  1  1
122274  1  0
122275  1  0
124276  1  0
125277  1  0
126278  1  0
127279  1  0
128280  1  0
131281  1  0
132282  1  1
133283  1  0
133284  1  0
135285  1  0
136286  1  0
137287  1  0
138288  1  0
139289  1  0
142290  1  0
143291  1  1
144292  1  0
144293  1  0
145294  1  0
145295  1  0
146296  1  0
146297  1  0
147298  1  0
147299  1  0
148300  1  0
148301  1  0
151302  1  0
153303  1  0
153304  1  0
154305  1  0
154306  1  0
155307  1  0
155308  1  0
156309  1  0
157310  1  0
157311  1  0
157312  1  0
160313  1  0
161314  1  6
162315  1  0
162316  1  0
163317  1  0
164318  1  0
164319  1  0
164320  1  0
165321  1  0
165322  1  0
165323  1  0
168324  1  0
M  END
