
     RDKit          2D

339343  0  0  0  0  0  0  0  0999 V2000
  -26.2320    0.8562    0.0000 C   0  0  0  0  0  0  0  0  0  0  0  0
  -27.5227    0.0919    0.0000 N   0  0  0  0  0  0  0  0  0  0  0  0
  -28.8299    0.8275    0.0000 C   0  0  0  0  0  0  0  0  0  0  0  0
  -28.8465    2.3274    0.0000 C   0  0  0  0  0  0  0  0  0  0  0  0
  -30.1538    3.0629    0.0000 C   0  0  0  0  0  0  0  0  0  0  0  0
  -31.4444    2.2986    0.0000 C   0  0  0  0  0  0  0  0  0  0  0  0
  -31.4279    0.7987    0.0000 C   0  0  0  0  0  0  0  0  0  0  0  0
  -30.1206    0.0631    0.0000 C   0  0  0  0  0  0  0  0  0  0  0  0
  -32.8492    0.3194    0.0000 C   0  0  0  0  0  0  0  0  0  0  0  0
  -33.7443    1.5231    0.0000 O   0  0  0  0  0  0  0  0  0  0  0  0
  -32.8761    2.7463    0.0000 C   0  0  0  0  0  0  0  0  0  0  0  0
  -33.3554    4.1677    0.0000 O   0  0  0  0  0  0  0  0  0  0  0  0
  -34.3129   -0.0087    0.0000 C   0  0  0  0  0  0  0  0  0  0  0  0
  -34.7606   -1.4403    0.0000 C   0  0  0  0  0  0  0  0  0  0  0  0
  -36.2243   -1.7684    0.0000 C   0  0  0  0  0  0  0  0  0  0  0  0
  -37.2403   -0.6648    0.0000 C   0  0  0  0  0  0  0  0  0  0  0  0
  -36.7926    0.7668    0.0000 C   0  0  0  0  0  0  0  0  0  0  0  0
  -35.3289    1.0949    0.0000 C   0  0  0  0  0  0  0  0  0  0  0  0
  -38.7039   -0.9929    0.0000 O   0  0  0  0  0  0  0  0  0  0  0  0
  -33.7446   -2.5438    0.0000 O   0  0  0  0  0  0  0  0  0  0  0  0
  -32.2810   -2.2157    0.0000 C   0  0  0  0  0  0  0  0  0  0  0  0
  -31.8333   -0.7841    0.0000 C   0  0  0  0  0  0  0  0  0  0  0  0
  -30.5785   -1.1241    0.0000 C   0  0  0  0  0  0  0  0  0  0  0  0
  -30.0367   -1.7127    0.0000 C   0  0  0  0  0  0  0  0  0  0  0  0
  -30.2754   -2.4762    0.0000 C   0  0  0  0  0  0  0  0  0  0  0  0
  -31.0561   -2.6512    0.0000 C   0  0  0  0  0  0  0  0  0  0  0  0
  -28.7854   -4.0947    0.0000 O   0  0  0  0  0  0  0  0  0  0  0  0
  -26.2486    2.3561    0.0000 S   0  0  0  0  0  0  0  0  0  0  0  0
  -24.9248    0.1206    0.0000 N   0  0  0  0  0  0  0  0  0  0  0  0
  -23.6341    0.8849    0.0000 C   0  0  0  0  0  0  0  0  0  0  0  0
  -22.3268    0.1494    0.0000 C   0  0  0  0  0  0  0  0  0  0  0  0
  -21.0362    0.9137    0.0000 C   0  0  0  0  0  0  0  0  0  0  0  0
  -21.0528    2.4136    0.0000 O   0  0  0  0  0  0  0  0  0  0  0  0
  -19.7289    0.1781    0.0000 N   0  0  0  0  0  0  0  0  0  0  0  0
  -18.4383    0.9424    0.0000 C   0  0  0  0  0  0  0  0  0  0  0  0
  -17.4869    2.1021    0.0000 C   0  0  0  0  0  0  0  0  0  0  0  0
  -16.0069    1.8580    0.0000 C   0  0  0  0  0  0  0  0  0  0  0  0
  -15.0554    3.0177    0.0000 C   0  0  0  0  0  0  0  0  0  0  0  0
  -13.5754    2.7735    0.0000 N   0  0  0  0  0  0  0  0  0  0  0  0
  -12.6240    3.9332    0.0000 C   0  0  0  0  0  0  0  0  0  0  0  0
  -11.1848    3.5105    0.0000 N   0  0  0  0  0  0  0  0  0  0  0  0
  -13.1526    5.3370    0.0000 N   0  0  0  0  0  0  0  0  0  0  0  0
  -17.1310    0.2069    0.0000 C   0  0  0  0  0  0  0  0  0  0  0  0
  -17.1144   -1.2931    0.0000 O   0  0  0  0  0  0  0  0  0  0  0  0
  -15.8404    0.9712    0.0000 N   0  0  0  0  0  0  0  0  0  0  0  0
  -14.5331    0.2356    0.0000 C   0  0  0  0  0  0  0  0  0  0  0  0
  -13.5563   -0.9027    0.0000 C   0  0  0  0  0  0  0  0  0  0  0  0
  -14.0537   -2.3179    0.0000 C   0  0  0  0  0  0  0  0  0  0  0  0
  -13.0768   -3.4562    0.0000 C   0  0  0  0  0  0  0  0  0  0  0  0
  -13.5742   -4.8713    0.0000 N   0  0  0  0  0  0  0  0  0  0  0  0
  -12.5974   -6.0096    0.0000 C   0  0  0  0  0  0  0  0  0  0  0  0
  -13.0948   -7.4248    0.0000 N   0  0  0  0  0  0  0  0  0  0  0  0
  -11.1232   -5.7328    0.0000 N   0  0  0  0  0  0  0  0  0  0  0  0
  -13.2424    0.9999    0.0000 C   0  0  0  0  0  0  0  0  0  0  0  0
  -12.9896    2.0638    0.0000 O   0  0  0  0  0  0  0  0  0  0  0  0
  -11.9352    0.2643    0.0000 N   0  0  0  0  0  0  0  0  0  0  0  0
  -10.6445    1.0287    0.0000 C   0  0  0  0  0  0  0  0  0  0  0  0
   -9.6931    2.1883    0.0000 C   0  0  0  0  0  0  0  0  0  0  0  0
   -8.2131    1.9442    0.0000 C   0  0  0  0  0  0  0  0  0  0  0  0
   -7.2617    3.1039    0.0000 C   0  0  0  0  0  0  0  0  0  0  0  0
   -5.7817    2.8598    0.0000 N   0  0  0  0  0  0  0  0  0  0  0  0
   -4.8303    4.0194    0.0000 C   0  0  0  0  0  0  0  0  0  0  0  0
   -3.3911    3.5967    0.0000 N   0  0  0  0  0  0  0  0  0  0  0  0
   -5.3589    5.4232    0.0000 N   0  0  0  0  0  0  0  0  0  0  0  0
   -9.3373    0.2931    0.0000 C   0  0  0  0  0  0  0  0  0  0  0  0
   -9.3207   -1.2068    0.0000 O   0  0  0  0  0  0  0  0  0  0  0  0
   -8.0466    1.0574    0.0000 N   0  0  0  0  0  0  0  0  0  0  0  0
   -6.7393    0.3218    0.0000 C   0  0  0  0  0  0  0  0  0  0  0  0
   -5.7625   -0.8165    0.0000 C   0  0  0  0  0  0  0  0  0  0  0  0
   -6.2599   -2.2316    0.0000 C   0  0  0  0  0  0  0  0  0  0  0  0
   -5.2831   -3.3699    0.0000 C   0  0  0  0  0  0  0  0  0  0  0  0
   -5.7805   -4.7851    0.0000 N   0  0  0  0  0  0  0  0  0  0  0  0
   -4.8036   -5.9234    0.0000 C   0  0  0  0  0  0  0  0  0  0  0  0
   -5.3010   -7.3385    0.0000 N   0  0  0  0  0  0  0  0  0  0  0  0
   -3.3294   -5.6466    0.0000 N   0  0  0  0  0  0  0  0  0  0  0  0
   -5.4487    1.0862    0.0000 C   0  0  0  0  0  0  0  0  0  0  0  0
   -5.1958    2.1500    0.0000 O   0  0  0  0  0  0  0  0  0  0  0  0
   -4.1414    0.3506    0.0000 N   0  0  0  0  0  0  0  0  0  0  0  0
   -2.8508    1.1149    0.0000 C   0  0  0  0  0  0  0  0  0  0  0  0
   -1.8994    2.2746    0.0000 C   0  0  0  0  0  0  0  0  0  0  0  0
   -0.4194    2.0305    0.0000 C   0  0  0  0  0  0  0  0  0  0  0  0
    0.5321    3.1901    0.0000 C   0  0  0  0  0  0  0  0  0  0  0  0
    2.0121    2.9460    0.0000 N   0  0  0  0  0  0  0  0  0  0  0  0
    2.9635    4.1057    0.0000 C   0  0  0  0  0  0  0  0  0  0  0  0
    4.4027    3.6830    0.0000 N   0  0  0  0  0  0  0  0  0  0  0  0
    2.4349    5.5095    0.0000 N   0  0  0  0  0  0  0  0  0  0  0  0
   -1.5435    0.3793    0.0000 C   0  0  0  0  0  0  0  0  0  0  0  0
   -1.5269   -1.1206    0.0000 O   0  0  0  0  0  0  0  0  0  0  0  0
   -0.2528    1.1437    0.0000 N   0  0  0  0  0  0  0  0  0  0  0  0
    1.0544    0.4081    0.0000 C   0  0  0  0  0  0  0  0  0  0  0  0
    2.0312   -0.7303    0.0000 C   0  0  0  0  0  0  0  0  0  0  0  0
    1.5338   -2.1454    0.0000 C   0  0  0  0  0  0  0  0  0  0  0  0
    2.5107   -3.2837    0.0000 C   0  0  0  0  0  0  0  0  0  0  0  0
    2.0133   -4.6988    0.0000 N   0  0  0  0  0  0  0  0  0  0  0  0
    2.9901   -5.8372    0.0000 C   0  0  0  0  0  0  0  0  0  0  0  0
    2.4927   -7.2523    0.0000 N   0  0  0  0  0  0  0  0  0  0  0  0
    4.4643   -5.5604    0.0000 N   0  0  0  0  0  0  0  0  0  0  0  0
    2.3451    1.1724    0.0000 C   0  0  0  0  0  0  0  0  0  0  0  0
    2.5979    2.2363    0.0000 O   0  0  0  0  0  0  0  0  0  0  0  0
    3.6523    0.4368    0.0000 N   0  0  0  0  0  0  0  0  0  0  0  0
    4.9430    1.2011    0.0000 C   0  0  0  0  0  0  0  0  0  0  0  0
    5.8944    2.3608    0.0000 C   0  0  0  0  0  0  0  0  0  0  0  0
    7.3744    2.1167    0.0000 C   0  0  0  0  0  0  0  0  0  0  0  0
    8.3258    3.2764    0.0000 C   0  0  0  0  0  0  0  0  0  0  0  0
    9.8058    3.0323    0.0000 N   0  0  0  0  0  0  0  0  0  0  0  0
   10.7572    4.1919    0.0000 C   0  0  0  0  0  0  0  0  0  0  0  0
   12.1964    3.7692    0.0000 N   0  0  0  0  0  0  0  0  0  0  0  0
   10.2286    5.5957    0.0000 N   0  0  0  0  0  0  0  0  0  0  0  0
    6.2502    0.4656    0.0000 C   0  0  0  0  0  0  0  0  0  0  0  0
    6.2668   -1.0343    0.0000 O   0  0  0  0  0  0  0  0  0  0  0  0
    7.5409    1.2299    0.0000 N   0  0  0  0  0  0  0  0  0  0  0  0
    8.8482    0.4943    0.0000 C   0  0  0  0  0  0  0  0  0  0  0  0
    9.8250   -0.6440    0.0000 C   0  0  0  0  0  0  0  0  0  0  0  0
    9.3276   -2.0591    0.0000 C   0  0  0  0  0  0  0  0  0  0  0  0
   10.3044   -3.1975    0.0000 C   0  0  0  0  0  0  0  0  0  0  0  0
    9.8070   -4.6126    0.0000 N   0  0  0  0  0  0  0  0  0  0  0  0
   10.7839   -5.7509    0.0000 C   0  0  0  0  0  0  0  0  0  0  0  0
   10.2865   -7.1661    0.0000 N   0  0  0  0  0  0  0  0  0  0  0  0
   12.2581   -5.4741    0.0000 N   0  0  0  0  0  0  0  0  0  0  0  0
   10.1388    1.2586    0.0000 C   0  0  0  0  0  0  0  0  0  0  0  0
   10.3917    2.3225    0.0000 O   0  0  0  0  0  0  0  0  0  0  0  0
   11.4461    0.5231    0.0000 N   0  0  0  0  0  0  0  0  0  0  0  0
   12.7367    1.2874    0.0000 C   0  0  0  0  0  0  0  0  0  0  0  0
   13.6881    2.4470    0.0000 C   0  0  0  0  0  0  0  0  0  0  0  0
   15.1682    2.2029    0.0000 C   0  0  0  0  0  0  0  0  0  0  0  0
   16.1196    3.3626    0.0000 C   0  0  0  0  0  0  0  0  0  0  0  0
   17.5996    3.1185    0.0000 N   0  0  0  0  0  0  0  0  0  0  0  0
   18.5510    4.2782    0.0000 C   0  0  0  0  0  0  0  0  0  0  0  0
   19.9902    3.8555    0.0000 N   0  0  0  0  0  0  0  0  0  0  0  0
   18.0224    5.6819    0.0000 N   0  0  0  0  0  0  0  0  0  0  0  0
   14.0440    0.5518    0.0000 C   0  0  0  0  0  0  0  0  0  0  0  0
   14.0606   -0.9481    0.0000 O   0  0  0  0  0  0  0  0  0  0  0  0
   15.3347    1.3161    0.0000 N   0  0  0  0  0  0  0  0  0  0  0  0
   16.6419    0.5805    0.0000 C   0  0  0  0  0  0  0  0  0  0  0  0
   17.6187   -0.5578    0.0000 C   0  0  0  0  0  0  0  0  0  0  0  0
   17.1213   -1.9729    0.0000 C   0  0  0  0  0  0  0  0  0  0  0  0
   18.0982   -3.1112    0.0000 C   0  0  0  0  0  0  0  0  0  0  0  0
   17.6008   -4.5264    0.0000 N   0  0  0  0  0  0  0  0  0  0  0  0
   18.5776   -5.6647    0.0000 C   0  0  0  0  0  0  0  0  0  0  0  0
   18.0802   -7.0798    0.0000 N   0  0  0  0  0  0  0  0  0  0  0  0
   20.0519   -5.3879    0.0000 N   0  0  0  0  0  0  0  0  0  0  0  0
   17.9326    1.3449    0.0000 C   0  0  0  0  0  0  0  0  0  0  0  0
   18.2135    2.5269    0.0000 O   0  0  0  0  0  0  0  0  0  0  0  0
   19.2398    0.6093    0.0000 N   0  0  0  0  0  0  0  0  0  0  0  0
   20.5305    1.3736    0.0000 C   0  0  0  0  0  0  0  0  0  0  0  0
   21.4819    2.5333    0.0000 C   0  0  0  0  0  0  0  0  0  0  0  0
   22.9619    2.2892    0.0000 C   0  0  0  0  0  0  0  0  0  0  0  0
   23.9133    3.4488    0.0000 C   0  0  0  0  0  0  0  0  0  0  0  0
   25.3933    3.2047    0.0000 N   0  0  0  0  0  0  0  0  0  0  0  0
   26.3447    4.3644    0.0000 C   0  0  0  0  0  0  0  0  0  0  0  0
   27.8247    4.1203    0.0000 N   0  0  0  0  0  0  0  0  0  0  0  0
   25.8161    5.7682    0.0000 N   0  0  0  0  0  0  0  0  0  0  0  0
   21.8377    0.6380    0.0000 C   0  0  0  0  0  0  0  0  0  0  0  0
   21.8543   -0.8619    0.0000 O   0  0  0  0  0  0  0  0  0  0  0  0
   23.1284    1.4024    0.0000 N   0  0  0  0  0  0  0  0  0  0  0  0
   24.4357    0.6668    0.0000 C   0  0  0  0  0  0  0  0  0  0  0  0
   25.4125   -0.4715    0.0000 C   0  0  0  0  0  0  0  0  0  0  0  0
   24.9151   -1.8867    0.0000 C   0  0  0  0  0  0  0  0  0  0  0  0
   25.8919   -3.0250    0.0000 C   0  0  0  0  0  0  0  0  0  0  0  0
   25.3945   -4.4401    0.0000 N   0  0  0  0  0  0  0  0  0  0  0  0
   26.3714   -5.5785    0.0000 C   0  0  0  0  0  0  0  0  0  0  0  0
   25.8740   -6.9936    0.0000 N   0  0  0  0  0  0  0  0  0  0  0  0
   27.8456   -5.3017    0.0000 N   0  0  0  0  0  0  0  0  0  0  0  0
   25.7263    1.4311    0.0000 C   0  0  0  0  0  0  0  0  0  0  0  0
   27.1135    0.8604    0.0000 O   0  0  0  0  0  0  0  0  0  0  0  0
   26.0732    2.8905    0.0000 O   0  0  0  0  0  0  0  0  0  0  0  0
  -27.3234   -1.3948    0.0000 H   0  0  0  0  0  0  0  0  0  0  0  0
  -27.5559    3.0917    0.0000 H   0  0  0  0  0  0  0  0  0  0  0  0
  -30.1704    4.5629    0.0000 H   0  0  0  0  0  0  0  0  0  0  0  0
  -29.7416   -1.3882    0.0000 H   0  0  0  0  0  0  0  0  0  0  0  0
  -36.6720   -3.2000    0.0000 H   0  0  0  0  0  0  0  0  0  0  0  0
  -37.8085    1.8704    0.0000 H   0  0  0  0  0  0  0  0  0  0  0  0
  -34.8812    2.5265    0.0000 H   0  0  0  0  0  0  0  0  0  0  0  0
  -39.7199    0.1106    0.0000 H   0  0  0  0  0  0  0  0  0  0  0  0
  -29.9219    0.9756    0.0000 H   0  0  0  0  0  0  0  0  0  0  0  0
  -27.8608   -1.4124    0.0000 H   0  0  0  0  0  0  0  0  0  0  0  0
  -31.7127   -4.7509    0.0000 H   0  0  0  0  0  0  0  0  0  0  0  0
  -29.2331   -5.5264    0.0000 H   0  0  0  0  0  0  0  0  0  0  0  0
  -24.9082   -1.3793    0.0000 H   0  0  0  0  0  0  0  0  0  0  0  0
  -22.6827    2.0446    0.0000 H   0  0  0  0  0  0  0  0  0  0  0  0
  -24.6109    2.0233    0.0000 H   0  0  0  0  0  0  0  0  0  0  0  0
  -21.3500   -0.9890    0.0000 H   0  0  0  0  0  0  0  0  0  0  0  0
  -23.2783   -1.0103    0.0000 H   0  0  0  0  0  0  0  0  0  0  0  0
  -19.7123   -1.3218    0.0000 H   0  0  0  0  0  0  0  0  0  0  0  0
  -19.4151    2.0808    0.0000 H   0  0  0  0  0  0  0  0  0  0  0  0
  -17.1657    3.5673    0.0000 H   0  0  0  0  0  0  0  0  0  0  0  0
  -18.7941    2.8377    0.0000 H   0  0  0  0  0  0  0  0  0  0  0  0
  -14.6996    1.1224    0.0000 H   0  0  0  0  0  0  0  0  0  0  0  0
  -15.7815    0.3750    0.0000 H   0  0  0  0  0  0  0  0  0  0  0  0
  -14.5580    4.4328    0.0000 H   0  0  0  0  0  0  0  0  0  0  0  0
  -16.2633    3.9071    0.0000 H   0  0  0  0  0  0  0  0  0  0  0  0
  -12.7229    1.5394    0.0000 H   0  0  0  0  0  0  0  0  0  0  0  0
  -10.1926    4.8488    0.0000 H   0  0  0  0  0  0  0  0  0  0  0  0
  -10.7690    2.2250    0.0000 H   0  0  0  0  0  0  0  0  0  0  0  0
  -12.2012    6.4966    0.0000 H   0  0  0  0  0  0  0  0  0  0  0  0
  -14.6326    5.5811    0.0000 H   0  0  0  0  0  0  0  0  0  0  0  0
  -15.4935    2.4305    0.0000 H   0  0  0  0  0  0  0  0  0  0  0  0
  -15.6188   -0.7994    0.0000 H   0  0  0  0  0  0  0  0  0  0  0  0
  -12.2490   -1.6383    0.0000 H   0  0  0  0  0  0  0  0  0  0  0  0
  -12.3525   -0.0077    0.0000 H   0  0  0  0  0  0  0  0  0  0  0  0
  -15.0051   -3.4775    0.0000 H   0  0  0  0  0  0  0  0  0  0  0  0
  -15.4408   -1.7471    0.0000 H   0  0  0  0  0  0  0  0  0  0  0  0
  -11.7696   -4.1918    0.0000 H   0  0  0  0  0  0  0  0  0  0  0  0
  -11.9912   -2.4211    0.0000 H   0  0  0  0  0  0  0  0  0  0  0  0
  -15.0485   -5.1481    0.0000 H   0  0  0  0  0  0  0  0  0  0  0  0
  -12.1180   -8.5631    0.0000 H   0  0  0  0  0  0  0  0  0  0  0  0
  -14.5690   -7.7016    0.0000 H   0  0  0  0  0  0  0  0  0  0  0  0
  -10.1463   -6.8712    0.0000 H   0  0  0  0  0  0  0  0  0  0  0  0
  -10.6258   -4.3177    0.0000 H   0  0  0  0  0  0  0  0  0  0  0  0
  -11.7359   -1.2224    0.0000 H   0  0  0  0  0  0  0  0  0  0  0  0
  -11.6214    2.1670    0.0000 H   0  0  0  0  0  0  0  0  0  0  0  0
   -9.3719    3.6535    0.0000 H   0  0  0  0  0  0  0  0  0  0  0  0
  -11.1395    2.5857    0.0000 H   0  0  0  0  0  0  0  0  0  0  0  0
   -6.9058    1.2086    0.0000 H   0  0  0  0  0  0  0  0  0  0  0  0
   -7.9878    0.4612    0.0000 H   0  0  0  0  0  0  0  0  0  0  0  0
   -6.7643    4.5190    0.0000 H   0  0  0  0  0  0  0  0  0  0  0  0
   -8.4695    3.9933    0.0000 H   0  0  0  0  0  0  0  0  0  0  0  0
   -4.9291    1.6256    0.0000 H   0  0  0  0  0  0  0  0  0  0  0  0
   -2.3989    4.9350    0.0000 H   0  0  0  0  0  0  0  0  0  0  0  0
   -2.9753    2.3113    0.0000 H   0  0  0  0  0  0  0  0  0  0  0  0
   -4.4075    6.5829    0.0000 H   0  0  0  0  0  0  0  0  0  0  0  0
   -6.8389    5.6673    0.0000 H   0  0  0  0  0  0  0  0  0  0  0  0
   -7.6998    2.5168    0.0000 H   0  0  0  0  0  0  0  0  0  0  0  0
   -7.8250   -0.7132    0.0000 H   0  0  0  0  0  0  0  0  0  0  0  0
   -4.4552   -1.5521    0.0000 H   0  0  0  0  0  0  0  0  0  0  0  0
   -4.5588    0.0785    0.0000 H   0  0  0  0  0  0  0  0  0  0  0  0
   -7.2113   -3.3913    0.0000 H   0  0  0  0  0  0  0  0  0  0  0  0
   -7.6471   -1.6609    0.0000 H   0  0  0  0  0  0  0  0  0  0  0  0
   -3.9758   -4.1055    0.0000 H   0  0  0  0  0  0  0  0  0  0  0  0
   -4.1974   -2.3349    0.0000 H   0  0  0  0  0  0  0  0  0  0  0  0
   -7.2547   -5.0619    0.0000 H   0  0  0  0  0  0  0  0  0  0  0  0
   -4.3242   -8.4769    0.0000 H   0  0  0  0  0  0  0  0  0  0  0  0
   -6.7753   -7.6153    0.0000 H   0  0  0  0  0  0  0  0  0  0  0  0
   -2.3526   -6.7849    0.0000 H   0  0  0  0  0  0  0  0  0  0  0  0
   -2.8320   -4.2315    0.0000 H   0  0  0  0  0  0  0  0  0  0  0  0
   -3.9421   -1.1361    0.0000 H   0  0  0  0  0  0  0  0  0  0  0  0
   -3.8276    2.2532    0.0000 H   0  0  0  0  0  0  0  0  0  0  0  0
   -1.5782    3.7398    0.0000 H   0  0  0  0  0  0  0  0  0  0  0  0
   -3.3458    2.6720    0.0000 H   0  0  0  0  0  0  0  0  0  0  0  0
    0.8879    1.2949    0.0000 H   0  0  0  0  0  0  0  0  0  0  0  0
   -0.1940    0.5475    0.0000 H   0  0  0  0  0  0  0  0  0  0  0  0
    1.0295    4.6053    0.0000 H   0  0  0  0  0  0  0  0  0  0  0  0
   -0.6758    4.0796    0.0000 H   0  0  0  0  0  0  0  0  0  0  0  0
    2.8646    1.7119    0.0000 H   0  0  0  0  0  0  0  0  0  0  0  0
    5.3949    5.0212    0.0000 H   0  0  0  0  0  0  0  0  0  0  0  0
    4.8185    2.3975    0.0000 H   0  0  0  0  0  0  0  0  0  0  0  0
    3.3863    6.6691    0.0000 H   0  0  0  0  0  0  0  0  0  0  0  0
    0.9549    5.7536    0.0000 H   0  0  0  0  0  0  0  0  0  0  0  0
    0.0940    2.6030    0.0000 H   0  0  0  0  0  0  0  0  0  0  0  0
   -0.0313   -0.6270    0.0000 H   0  0  0  0  0  0  0  0  0  0  0  0
    3.3385   -1.4658    0.0000 H   0  0  0  0  0  0  0  0  0  0  0  0
    3.2350    0.1647    0.0000 H   0  0  0  0  0  0  0  0  0  0  0  0
    0.5824   -3.3050    0.0000 H   0  0  0  0  0  0  0  0  0  0  0  0
    0.1467   -1.5746    0.0000 H   0  0  0  0  0  0  0  0  0  0  0  0
    3.8179   -4.0193    0.0000 H   0  0  0  0  0  0  0  0  0  0  0  0
    3.5964   -2.2487    0.0000 H   0  0  0  0  0  0  0  0  0  0  0  0
    0.5390   -4.9756    0.0000 H   0  0  0  0  0  0  0  0  0  0  0  0
    3.4695   -8.3906    0.0000 H   0  0  0  0  0  0  0  0  0  0  0  0
    1.0185   -7.5291    0.0000 H   0  0  0  0  0  0  0  0  0  0  0  0
    5.4412   -6.6987    0.0000 H   0  0  0  0  0  0  0  0  0  0  0  0
    4.9618   -4.1452    0.0000 H   0  0  0  0  0  0  0  0  0  0  0  0
    3.8516   -1.0499    0.0000 H   0  0  0  0  0  0  0  0  0  0  0  0
    3.9662    2.3395    0.0000 H   0  0  0  0  0  0  0  0  0  0  0  0
    6.2156    3.8260    0.0000 H   0  0  0  0  0  0  0  0  0  0  0  0
    4.4480    2.7582    0.0000 H   0  0  0  0  0  0  0  0  0  0  0  0
    8.6817    1.3811    0.0000 H   0  0  0  0  0  0  0  0  0  0  0  0
    7.5997    0.6337    0.0000 H   0  0  0  0  0  0  0  0  0  0  0  0
    8.8232    4.6915    0.0000 H   0  0  0  0  0  0  0  0  0  0  0  0
    7.1180    4.1658    0.0000 H   0  0  0  0  0  0  0  0  0  0  0  0
   10.6584    1.7981    0.0000 H   0  0  0  0  0  0  0  0  0  0  0  0
   13.1886    5.1075    0.0000 H   0  0  0  0  0  0  0  0  0  0  0  0
   12.6122    2.4838    0.0000 H   0  0  0  0  0  0  0  0  0  0  0  0
   11.1800    6.7554    0.0000 H   0  0  0  0  0  0  0  0  0  0  0  0
    8.7486    5.8398    0.0000 H   0  0  0  0  0  0  0  0  0  0  0  0
    7.8877    2.6892    0.0000 H   0  0  0  0  0  0  0  0  0  0  0  0
    7.7625   -0.5407    0.0000 H   0  0  0  0  0  0  0  0  0  0  0  0
   11.1323   -1.3796    0.0000 H   0  0  0  0  0  0  0  0  0  0  0  0
   11.0287    0.2510    0.0000 H   0  0  0  0  0  0  0  0  0  0  0  0
    8.3762   -3.2188    0.0000 H   0  0  0  0  0  0  0  0  0  0  0  0
    7.9404   -1.4884    0.0000 H   0  0  0  0  0  0  0  0  0  0  0  0
   11.6117   -3.9331    0.0000 H   0  0  0  0  0  0  0  0  0  0  0  0
   11.3901   -2.1624    0.0000 H   0  0  0  0  0  0  0  0  0  0  0  0
    8.3328   -4.8894    0.0000 H   0  0  0  0  0  0  0  0  0  0  0  0
   11.2633   -8.3044    0.0000 H   0  0  0  0  0  0  0  0  0  0  0  0
    8.8122   -7.4429    0.0000 H   0  0  0  0  0  0  0  0  0  0  0  0
   13.2349   -6.6125    0.0000 H   0  0  0  0  0  0  0  0  0  0  0  0
   12.7555   -4.0590    0.0000 H   0  0  0  0  0  0  0  0  0  0  0  0
   11.6454   -0.9636    0.0000 H   0  0  0  0  0  0  0  0  0  0  0  0
   11.7599    2.4257    0.0000 H   0  0  0  0  0  0  0  0  0  0  0  0
   14.0093    3.9123    0.0000 H   0  0  0  0  0  0  0  0  0  0  0  0
   12.2417    2.8444    0.0000 H   0  0  0  0  0  0  0  0  0  0  0  0
   16.4754    1.4674    0.0000 H   0  0  0  0  0  0  0  0  0  0  0  0
   15.3935    0.7200    0.0000 H   0  0  0  0  0  0  0  0  0  0  0  0
   16.6170    4.7777    0.0000 H   0  0  0  0  0  0  0  0  0  0  0  0
   14.9117    4.2520    0.0000 H   0  0  0  0  0  0  0  0  0  0  0  0
   18.4521    1.8843    0.0000 H   0  0  0  0  0  0  0  0  0  0  0  0
   20.9824    5.1937    0.0000 H   0  0  0  0  0  0  0  0  0  0  0  0
   20.4060    2.5700    0.0000 H   0  0  0  0  0  0  0  0  0  0  0  0
   18.9738    6.8416    0.0000 H   0  0  0  0  0  0  0  0  0  0  0  0
   16.5424    5.9260    0.0000 H   0  0  0  0  0  0  0  0  0  0  0  0
   15.6815    2.7755    0.0000 H   0  0  0  0  0  0  0  0  0  0  0  0
   15.5562   -0.4545    0.0000 H   0  0  0  0  0  0  0  0  0  0  0  0
   18.9260   -1.2934    0.0000 H   0  0  0  0  0  0  0  0  0  0  0  0
   18.8225    0.3372    0.0000 H   0  0  0  0  0  0  0  0  0  0  0  0
   16.1699   -3.1326    0.0000 H   0  0  0  0  0  0  0  0  0  0  0  0
   15.7342   -1.4022    0.0000 H   0  0  0  0  0  0  0  0  0  0  0  0
   19.4054   -3.8468    0.0000 H   0  0  0  0  0  0  0  0  0  0  0  0
   19.1839   -2.0762    0.0000 H   0  0  0  0  0  0  0  0  0  0  0  0
   16.1265   -4.8032    0.0000 H   0  0  0  0  0  0  0  0  0  0  0  0
   19.0570   -8.2182    0.0000 H   0  0  0  0  0  0  0  0  0  0  0  0
   16.6060   -7.3566    0.0000 H   0  0  0  0  0  0  0  0  0  0  0  0
   21.0287   -6.5262    0.0000 H   0  0  0  0  0  0  0  0  0  0  0  0
   20.5493   -3.9728    0.0000 H   0  0  0  0  0  0  0  0  0  0  0  0
   19.4391   -0.8774    0.0000 H   0  0  0  0  0  0  0  0  0  0  0  0
   19.5537    2.5119    0.0000 H   0  0  0  0  0  0  0  0  0  0  0  0
   21.8031    3.9985    0.0000 H   0  0  0  0  0  0  0  0  0  0  0  0
   20.0355    2.9307    0.0000 H   0  0  0  0  0  0  0  0  0  0  0  0
   24.2692    1.5536    0.0000 H   0  0  0  0  0  0  0  0  0  0  0  0
   23.1872    0.8062    0.0000 H   0  0  0  0  0  0  0  0  0  0  0  0
   24.4107    4.8640    0.0000 H   0  0  0  0  0  0  0  0  0  0  0  0
   22.7055    4.3383    0.0000 H   0  0  0  0  0  0  0  0  0  0  0  0
   26.2459    1.9706    0.0000 H   0  0  0  0  0  0  0  0  0  0  0  0
   28.7761    5.2799    0.0000 H   0  0  0  0  0  0  0  0  0  0  0  0
   28.3533    2.7165    0.0000 H   0  0  0  0  0  0  0  0  0  0  0  0
   26.7675    6.9278    0.0000 H   0  0  0  0  0  0  0  0  0  0  0  0
   24.3361    6.0123    0.0000 H   0  0  0  0  0  0  0  0  0  0  0  0
   23.4752    2.8617    0.0000 H   0  0  0  0  0  0  0  0  0  0  0  0
   23.3500   -0.3683    0.0000 H   0  0  0  0  0  0  0  0  0  0  0  0
   26.7997   -1.0423    0.0000 H   0  0  0  0  0  0  0  0  0  0  0  0
   26.4982    0.5635    0.0000 H   0  0  0  0  0  0  0  0  0  0  0  0
   23.9637   -3.0463    0.0000 H   0  0  0  0  0  0  0  0  0  0  0  0
   23.5279   -1.3159    0.0000 H   0  0  0  0  0  0  0  0  0  0  0  0
   27.1992   -3.7606    0.0000 H   0  0  0  0  0  0  0  0  0  0  0  0
   26.9776   -1.9900    0.0000 H   0  0  0  0  0  0  0  0  0  0  0  0
   23.9203   -4.7169    0.0000 H   0  0  0  0  0  0  0  0  0  0  0  0
   26.8508   -8.1319    0.0000 H   0  0  0  0  0  0  0  0  0  0  0  0
   24.3997   -7.2704    0.0000 H   0  0  0  0  0  0  0  0  0  0  0  0
   28.8224   -6.4400    0.0000 H   0  0  0  0  0  0  0  0  0  0  0  0
   28.3430   -3.8865    0.0000 H   0  0  0  0  0  0  0  0  0  0  0  0
  1  2  1  0
  2  3  1  0
  3  4  2  0
  4  5  1  0
  5  6  2  0
  6  7  1  0
  7  8  2  0
  7  9  1  0
  9 10  1  0
 10 11  1  0
 11 12  2  0
  9 13  1  0
 13 14  1  0
 14 15  2  0
 15 16  1  0
 16 17  2  0
 17 18  1  0
 16 19  1  0
 14 20  1  0
 20 21  1  0
 21 22  2  0
 22 23  1  0
 23 24  2  0
 24 25  1  0
 25 26  2  0
 25 27  1  0
  1 28  2  0
  1 29  1  0
 29 30  1  0
 30 31  1  0
 31 32  1  0
 32 33  2  0
 32 34  1  0
 34 35  1  0
 35 36  1  0
 36 37  1  0
 37 38  1  0
 38 39  1  0
 39 40  1  0
 40 41  2  3
 40 42  1  0
 35 43  1  0
 43 44  2  0
 43 45  1  0
 45 46  1  0
 46 47  1  0
 47 48  1  0
 48 49  1  0
 49 50  1  0
 50 51  1  0
 51 52  2  3
 51 53  1  0
 46 54  1  0
 54 55  2  0
 54 56  1  0
 56 57  1  0
 57 58  1  0
 58 59  1  0
 59 60  1  0
 60 61  1  0
 61 62  1  0
 62 63  2  3
 62 64  1  0
 57 65  1  0
 65 66  2  0
 65 67  1  0
 67 68  1  0
 68 69  1  0
 69 70  1  0
 70 71  1  0
 71 72  1  0
 72 73  1  0
 73 74  2  3
 73 75  1  0
 68 76  1  0
 76 77  2  0
 76 78  1  0
 78 79  1  0
 79 80  1  0
 80 81  1  0
 81 82  1  0
 82 83  1  0
 83 84  1  0
 84 85  2  3
 84 86  1  0
 79 87  1  0
 87 88  2  0
 87 89  1  0
 89 90  1  0
 90 91  1  0
 91 92  1  0
 92 93  1  0
 93 94  1  0
 94 95  1  0
 95 96  2  3
 95 97  1  0
 90 98  1  0
 98 99  2  0
 98100  1  0
100101  1  0
101102  1  0
102103  1  0
103104  1  0
104105  1  0
105106  1  0
106107  2  3
106108  1  0
101109  1  0
109110  2  0
109111  1  0
111112  1  0
112113  1  0
113114  1  0
114115  1  0
115116  1  0
116117  1  0
117118  2  3
117119  1  0
112120  1  0
120121  2  0
120122  1  0
122123  1  0
123124  1  0
124125  1  0
125126  1  0
126127  1  0
127128  1  0
128129  2  3
128130  1  0
123131  1  0
131132  2  0
131133  1  0
133134  1  0
134135  1  0
135136  1  0
136137  1  0
137138  1  0
138139  1  0
139140  2  3
139141  1  0
134142  1  0
142143  2  0
142144  1  0
144145  1  0
145146  1  0
146147  1  0
147148  1  0
148149  1  0
149150  1  0
150151  2  3
150152  1  0
145153  1  0
153154  2  0
153155  1  0
155156  1  0
156157  1  0
157158  1  0
158159  1  0
159160  1  0
160161  1  0
161162  2  3
161163  1  0
156164  1  0
164165  2  0
164166  1  0
  8  3  1  0
 11  6  1  0
 18 13  2  0
 22  9  1  0
 26 21  1  0
  2167  1  0
  4168  1  0
  5169  1  0
  8170  1  0
 15171  1  0
 17172  1  0
 18173  1  0
 19174  1  0
 23175  1  0
 24176  1  0
 26177  1  0
 27178  1  0
 29179  1  0
 30180  1  0
 30181  1  0
 31182  1  0
 31183  1  0
 34184  1  0
 35185  1  1
 36186  1  0
 36187  1  0
 37188  1  0
 37189  1  0
 38190  1  0
 38191  1  0
 39192  1  0
 41193  1  0
 41194  1  0
 42195  1  0
 42196  1  0
 45197  1  0
 46198  1  6
 47199  1  0
 47200  1  0
 48201  1  0
 48202  1  0
 49203  1  0
 49204  1  0
 50205  1  0
 52206  1  0
 52207  1  0
 53208  1  0
 53209  1  0
 56210  1  0
 57211  1  1
 58212  1  0
 58213  1  0
 59214  1  0
 59215  1  0
 60216  1  0
 60217  1  0
 61218  1  0
 63219  1  0
 63220  1  0
 64221  1  0
 64222  1  0
 67223  1  0
 68224  1  6
 69225  1  0
 69226  1  0
 70227  1  0
 70228  1  0
 71229  1  0
 71230  1  0
 72231  1  0
 74232  1  0
 74233  1  0
 75234  1  0
 75235  1  0
 78236  1  0
 79237  1  1
 80238  1  0
 80239  1  0
 81240  1  0
 81241  1  0
 82242  1  0
 82243  1  0
 83244  1  0
 85245  1  0
 85246  1  0
 86247  1  0
 86248  1  0
 89249  1  0
 90250  1  6
 91251  1  0
 91252  1  0
 92253  1  0
 92254  1  0
 93255  1  0
 93256  1  0
 94257  1  0
 96258  1  0
 96259  1  0
 97260  1  0
 97261  1  0
100262  1  0
101263  1  1
102264  1  0
102265  1  0
103266  1  0
103267  1  0
104268  1  0
104269  1  0
105270  1  0
107271  1  0
107272  1  0
108273  1  0
108274  1  0
111275  1  0
112276  1  6
113277  1  0
113278  1  0
114279  1  0
114280  1  0
115281  1  0
115282  1  0
116283  1  0
118284  1  0
118285  1  0
119286  1  0
119287  1  0
122288  1  0
123289  1  1
124290  1  0
124291  1  0
125292  1  0
125293  1  0
126294  1  0
126295  1  0
127296  1  0
129297  1  0
129298  1  0
130299  1  0
130300  1  0
133301  1  0
134302  1  6
135303  1  0
135304  1  0
136305  1  0
136306  1  0
137307  1  0
137308  1  0
138309  1  0
140310  1  0
140311  1  0
141312  1  0
141313  1  0
144314  1  0
145315  1  1
146316  1  0
146317  1  0
147318  1  0
147319  1  0
148320  1  0
148321  1  0
149322  1  0
151323  1  0
151324  1  0
152325  1  0
152326  1  0
155327  1  0
156328  1  6
157329  1  0
157330  1  0
158331  1  0
158332  1  0
159333  1  0
159334  1  0
160335  1  0
162336  1  0
162337  1  0
163338  1  0
163339  1  0
M  CHG  8  41   1  52   1  63   1  74   1  85   1  96   1 107   1 118   1
M  CHG  5 129   1 140   1 151   1 162   1 166  -1
M  END
