
     RDKit          2D

460466  0  0  0  0  0  0  0  0999 V2000
   -0.6786   -2.1160    0.0000 C   0  0  0  0  0  0  0  0  0  0  0  0
   -1.7194   -3.1961    0.0000 N   0  0  0  0  0  0  0  0  0  0  0  0
   -1.3045   -4.6375    0.0000 C   0  0  0  0  0  0  0  0  0  0  0  0
    0.1514   -4.9989    0.0000 C   0  0  0  0  0  0  0  0  0  0  0  0
    0.5664   -6.4403    0.0000 C   0  0  0  0  0  0  0  0  0  0  0  0
   -0.4745   -7.5204    0.0000 C   0  0  0  0  0  0  0  0  0  0  0  0
   -1.9303   -7.1591    0.0000 C   0  0  0  0  0  0  0  0  0  0  0  0
   -2.3453   -5.7176    0.0000 C   0  0  0  0  0  0  0  0  0  0  0  0
   -2.7239   -8.4320    0.0000 C   0  0  0  0  0  0  0  0  0  0  0  0
   -1.7585   -9.5800    0.0000 O   0  0  0  0  0  0  0  0  0  0  0  0
   -0.3683   -9.0167    0.0000 C   0  0  0  0  0  0  0  0  0  0  0  0
    0.6748  -10.0946    0.0000 O   0  0  0  0  0  0  0  0  0  0  0  0
   -3.3800   -9.7809    0.0000 C   0  0  0  0  0  0  0  0  0  0  0  0
   -4.8762   -9.8871    0.0000 C   0  0  0  0  0  0  0  0  0  0  0  0
   -5.5324  -11.2360    0.0000 C   0  0  0  0  0  0  0  0  0  0  0  0
   -4.6923  -12.4786    0.0000 C   0  0  0  0  0  0  0  0  0  0  0  0
   -3.1960  -12.3724    0.0000 C   0  0  0  0  0  0  0  0  0  0  0  0
   -2.5399  -11.0235    0.0000 C   0  0  0  0  0  0  0  0  0  0  0  0
   -5.3484  -13.8275    0.0000 O   0  0  0  0  0  0  0  0  0  0  0  0
   -5.7163   -8.6444    0.0000 O   0  0  0  0  0  0  0  0  0  0  0  0
   -5.0602   -7.2955    0.0000 C   0  0  0  0  0  0  0  0  0  0  0  0
   -3.5640   -7.1893    0.0000 C   0  0  0  0  0  0  0  0  0  0  0  0
   -3.6061   -5.8900    0.0000 C   0  0  0  0  0  0  0  0  0  0  0  0
   -4.0541   -5.2272    0.0000 C   0  0  0  0  0  0  0  0  0  0  0  0
   -4.8521   -5.2839    0.0000 C   0  0  0  0  0  0  0  0  0  0  0  0
   -5.2021   -6.0033    0.0000 C   0  0  0  0  0  0  0  0  0  0  0  0
   -6.0843   -3.4613    0.0000 O   0  0  0  0  0  0  0  0  0  0  0  0
    0.7772   -2.4773    0.0000 S   0  0  0  0  0  0  0  0  0  0  0  0
   -1.0936   -0.6745    0.0000 N   0  0  0  0  0  0  0  0  0  0  0  0
   -0.0527    0.4056    0.0000 C   0  0  0  0  0  0  0  0  0  0  0  0
   -0.4677    1.8471    0.0000 C   0  0  0  0  0  0  0  0  0  0  0  0
    0.5732    2.9272    0.0000 C   0  0  0  0  0  0  0  0  0  0  0  0
    1.3177    2.6423    0.0000 O   0  0  0  0  0  0  0  0  0  0  0  0
    0.1582    4.3686    0.0000 N   0  0  0  0  0  0  0  0  0  0  0  0
    1.1990    5.4487    0.0000 C   0  0  0  0  0  0  0  0  0  0  0  0
    2.0820    4.2361    0.0000 C   0  0  0  0  0  0  0  0  0  0  0  0
    1.6450    2.8012    0.0000 O   0  0  0  0  0  0  0  0  0  0  0  0
    1.8077    6.8197    0.0000 C   0  0  0  0  0  0  0  0  0  0  0  0
    3.2993    6.9781    0.0000 O   0  0  0  0  0  0  0  0  0  0  0  0
    0.9247    8.0323    0.0000 N   0  0  0  0  0  0  0  0  0  0  0  0
    1.5334    9.4033    0.0000 C   0  0  0  0  0  0  0  0  0  0  0  0
    0.0776    9.7646    0.0000 C   0  0  0  0  0  0  0  0  0  0  0  0
   -0.9633    8.6845    0.0000 C   0  0  0  0  0  0  0  0  0  0  0  0
   -2.4191    9.0458    0.0000 C   0  0  0  0  0  0  0  0  0  0  0  0
   -3.3205    7.8469    0.0000 O   0  0  0  0  0  0  0  0  0  0  0  0
   -2.6553   10.5271    0.0000 O   0  0  0  0  0  0  0  0  0  0  0  0
    2.5743   10.4834    0.0000 C   0  0  0  0  0  0  0  0  0  0  0  0
    1.8228   11.7816    0.0000 O   0  0  0  0  0  0  0  0  0  0  0  0
    4.0301   10.1220    0.0000 N   0  0  0  0  0  0  0  0  0  0  0  0
    5.0709   11.2021    0.0000 C   0  0  0  0  0  0  0  0  0  0  0  0
    3.8265   12.0396    0.0000 C   0  0  0  0  0  0  0  0  0  0  0  0
    2.4790   11.3806    0.0000 C   0  0  0  0  0  0  0  0  0  0  0  0
    1.2346   12.2181    0.0000 C   0  0  0  0  0  0  0  0  0  0  0  0
   -0.1832   11.7283    0.0000 O   0  0  0  0  0  0  0  0  0  0  0  0
    1.3376   13.7146    0.0000 O   0  0  0  0  0  0  0  0  0  0  0  0
    6.4184   11.8611    0.0000 C   0  0  0  0  0  0  0  0  0  0  0  0
    6.1563   13.3380    0.0000 O   0  0  0  0  0  0  0  0  0  0  0  0
    7.6629   11.0236    0.0000 N   0  0  0  0  0  0  0  0  0  0  0  0
    9.0104   11.6826    0.0000 C   0  0  0  0  0  0  0  0  0  0  0  0
    8.1274   12.8952    0.0000 C   0  0  0  0  0  0  0  0  0  0  0  0
    6.6358   12.7368    0.0000 C   0  0  0  0  0  0  0  0  0  0  0  0
    5.7528   13.9494    0.0000 C   0  0  0  0  0  0  0  0  0  0  0  0
    5.2883   12.0778    0.0000 C   0  0  0  0  0  0  0  0  0  0  0  0
   10.5020   11.8410    0.0000 C   0  0  0  0  0  0  0  0  0  0  0  0
   10.9390   13.2759    0.0000 O   0  0  0  0  0  0  0  0  0  0  0  0
   11.3849   10.6284    0.0000 N   0  0  0  0  0  0  0  0  0  0  0  0
   12.8766   10.7867    0.0000 C   0  0  0  0  0  0  0  0  0  0  0  0
   12.4616   12.2282    0.0000 C   0  0  0  0  0  0  0  0  0  0  0  0
   11.0607   12.7643    0.0000 C   0  0  0  0  0  0  0  0  0  0  0  0
   14.3324   10.4254    0.0000 C   0  0  0  0  0  0  0  0  0  0  0  0
   15.2338   11.6243    0.0000 O   0  0  0  0  0  0  0  0  0  0  0  0
   14.7474    8.9839    0.0000 N   0  0  0  0  0  0  0  0  0  0  0  0
   16.2032    8.6226    0.0000 C   0  0  0  0  0  0  0  0  0  0  0  0
   16.3062   10.1190    0.0000 C   0  0  0  0  0  0  0  0  0  0  0  0
   17.4476    7.7851    0.0000 C   0  0  0  0  0  0  0  0  0  0  0  0
   18.5956    8.7506    0.0000 O   0  0  0  0  0  0  0  0  0  0  0  0
   17.3446    6.2886    0.0000 N   0  0  0  0  0  0  0  0  0  0  0  0
   18.5890    5.4512    0.0000 C   0  0  0  0  0  0  0  0  0  0  0  0
   19.1977    6.8221    0.0000 C   0  0  0  0  0  0  0  0  0  0  0  0
   18.3147    8.0347    0.0000 C   0  0  0  0  0  0  0  0  0  0  0  0
   18.9234    9.4057    0.0000 C   0  0  0  0  0  0  0  0  0  0  0  0
   18.1948   10.7169    0.0000 O   0  0  0  0  0  0  0  0  0  0  0  0
   20.4150    9.5641    0.0000 O   0  0  0  0  0  0  0  0  0  0  0  0
   19.4720    4.2386    0.0000 C   0  0  0  0  0  0  0  0  0  0  0  0
   20.9332    4.5776    0.0000 O   0  0  0  0  0  0  0  0  0  0  0  0
   18.8633    2.8676    0.0000 N   0  0  0  0  0  0  0  0  0  0  0  0
   19.7463    1.6550    0.0000 C   0  0  0  0  0  0  0  0  0  0  0  0
   20.4948    2.9549    0.0000 C   0  0  0  0  0  0  0  0  0  0  0  0
   20.1612    0.2136    0.0000 C   0  0  0  0  0  0  0  0  0  0  0  0
   21.6612    0.2152    0.0000 O   0  0  0  0  0  0  0  0  0  0  0  0
   19.1204   -0.8665    0.0000 N   0  0  0  0  0  0  0  0  0  0  0  0
   19.5354   -2.3080    0.0000 C   0  0  0  0  0  0  0  0  0  0  0  0
   20.8829   -1.6490    0.0000 C   0  0  0  0  0  0  0  0  0  0  0  0
   20.9859   -0.1526    0.0000 C   0  0  0  0  0  0  0  0  0  0  0  0
   19.8358    0.8104    0.0000 C   0  0  0  0  0  0  0  0  0  0  0  0
   20.3963    2.2018    0.0000 N   0  0  0  0  0  0  0  0  0  0  0  0
   21.8927    2.0987    0.0000 C   0  0  0  0  0  0  0  0  0  0  0  0
   22.2571    0.6437    0.0000 N   0  0  0  0  0  0  0  0  0  0  0  0
   19.4323   -3.8045    0.0000 C   0  0  0  0  0  0  0  0  0  0  0  0
   20.8424   -4.3159    0.0000 O   0  0  0  0  0  0  0  0  0  0  0  0
   18.0848   -4.4634    0.0000 N   0  0  0  0  0  0  0  0  0  0  0  0
   17.9817   -5.9599    0.0000 C   0  0  0  0  0  0  0  0  0  0  0  0
   19.4734   -5.8015    0.0000 C   0  0  0  0  0  0  0  0  0  0  0  0
   20.0820   -4.4306    0.0000 C   0  0  0  0  0  0  0  0  0  0  0  0
   21.5736   -4.2722    0.0000 N   0  0  0  0  0  0  0  0  0  0  0  0
   19.5187   -3.0404    0.0000 O   0  0  0  0  0  0  0  0  0  0  0  0
   17.3731   -7.3309    0.0000 C   0  0  0  0  0  0  0  0  0  0  0  0
   18.5232   -8.2938    0.0000 O   0  0  0  0  0  0  0  0  0  0  0  0
   15.8815   -7.4892    0.0000 N   0  0  0  0  0  0  0  0  0  0  0  0
   15.2728   -8.8602    0.0000 C   0  0  0  0  0  0  0  0  0  0  0  0
   16.7286   -9.2215    0.0000 C   0  0  0  0  0  0  0  0  0  0  0  0
   17.7695   -8.1414    0.0000 C   0  0  0  0  0  0  0  0  0  0  0  0
   19.2253   -8.5028    0.0000 C   0  0  0  0  0  0  0  0  0  0  0  0
   18.3781   -6.7705    0.0000 C   0  0  0  0  0  0  0  0  0  0  0  0
   14.2320   -9.9403    0.0000 C   0  0  0  0  0  0  0  0  0  0  0  0
   14.8196  -11.3204    0.0000 O   0  0  0  0  0  0  0  0  0  0  0  0
   12.7761   -9.5789    0.0000 N   0  0  0  0  0  0  0  0  0  0  0  0
   11.7353  -10.6590    0.0000 C   0  0  0  0  0  0  0  0  0  0  0  0
   12.9797  -11.4965    0.0000 C   0  0  0  0  0  0  0  0  0  0  0  0
   14.3975  -11.0067    0.0000 S   0  0  0  0  0  0  0  0  0  0  0  0
   10.3878  -11.3180    0.0000 C   0  0  0  0  0  0  0  0  0  0  0  0
   10.4679  -12.8159    0.0000 O   0  0  0  0  0  0  0  0  0  0  0  0
    9.1434  -10.4805    0.0000 N   0  0  0  0  0  0  0  0  0  0  0  0
    7.7959  -11.1395    0.0000 C   0  0  0  0  0  0  0  0  0  0  0  0
    8.6788  -12.3521    0.0000 C   0  0  0  0  0  0  0  0  0  0  0  0
    9.0938  -13.7936    0.0000 O   0  0  0  0  0  0  0  0  0  0  0  0
   10.1786  -12.3768    0.0000 C   0  0  0  0  0  0  0  0  0  0  0  0
    6.3042  -11.2979    0.0000 C   0  0  0  0  0  0  0  0  0  0  0  0
    6.0454  -12.7754    0.0000 O   0  0  0  0  0  0  0  0  0  0  0  0
    5.4213  -10.0853    0.0000 N   0  0  0  0  0  0  0  0  0  0  0  0
    3.9297  -10.2437    0.0000 C   0  0  0  0  0  0  0  0  0  0  0  0
    4.3446  -11.6851    0.0000 C   0  0  0  0  0  0  0  0  0  0  0  0
    5.8005  -12.0465    0.0000 C   0  0  0  0  0  0  0  0  0  0  0  0
    6.2154  -13.4879    0.0000 C   0  0  0  0  0  0  0  0  0  0  0  0
    7.2921  -11.8881    0.0000 C   0  0  0  0  0  0  0  0  0  0  0  0
    2.4738   -9.8823    0.0000 C   0  0  0  0  0  0  0  0  0  0  0  0
    1.7253  -11.1822    0.0000 O   0  0  0  0  0  0  0  0  0  0  0  0
    2.0589   -8.4409    0.0000 N   0  0  0  0  0  0  0  0  0  0  0  0
    0.6030   -8.0795    0.0000 C   0  0  0  0  0  0  0  0  0  0  0  0
    0.5000   -9.5760    0.0000 C   0  0  0  0  0  0  0  0  0  0  0  0
    1.7444  -10.4134    0.0000 C   0  0  0  0  0  0  0  0  0  0  0  0
    1.6414  -11.9099    0.0000 C   0  0  0  0  0  0  0  0  0  0  0  0
    3.2002  -10.7748    0.0000 C   0  0  0  0  0  0  0  0  0  0  0  0
   -0.6414   -7.2420    0.0000 C   0  0  0  0  0  0  0  0  0  0  0  0
   -1.5217   -8.4566    0.0000 O   0  0  0  0  0  0  0  0  0  0  0  0
   -0.5383   -5.7456    0.0000 N   0  0  0  0  0  0  0  0  0  0  0  0
   -1.7828   -4.9081    0.0000 C   0  0  0  0  0  0  0  0  0  0  0  0
   -2.3914   -6.2791    0.0000 C   0  0  0  0  0  0  0  0  0  0  0  0
   -1.5085   -7.4916    0.0000 C   0  0  0  0  0  0  0  0  0  0  0  0
   -2.1171   -8.8626    0.0000 C   0  0  0  0  0  0  0  0  0  0  0  0
   -0.9670   -9.8255    0.0000 O   0  0  0  0  0  0  0  0  0  0  0  0
   -3.5261   -9.3772    0.0000 O   0  0  0  0  0  0  0  0  0  0  0  0
   -2.6657   -3.6955    0.0000 C   0  0  0  0  0  0  0  0  0  0  0  0
   -4.0747   -4.2101    0.0000 O   0  0  0  0  0  0  0  0  0  0  0  0
   -2.0571   -2.3245    0.0000 N   0  0  0  0  0  0  0  0  0  0  0  0
   -2.9400   -1.1119    0.0000 C   0  0  0  0  0  0  0  0  0  0  0  0
   -3.6344   -2.4415    0.0000 C   0  0  0  0  0  0  0  0  0  0  0  0
   -4.5679   -3.6157    0.0000 C   0  0  0  0  0  0  0  0  0  0  0  0
   -5.7067   -4.5920    0.0000 C   0  0  0  0  0  0  0  0  0  0  0  0
   -7.0097   -5.3351    0.0000 C   0  0  0  0  0  0  0  0  0  0  0  0
   -8.4298   -5.8182    0.0000 C   0  0  0  0  0  0  0  0  0  0  0  0
   -9.9156   -6.0238    0.0000 C   0  0  0  0  0  0  0  0  0  0  0  0
  -11.4135   -5.9445    0.0000 C   0  0  0  0  0  0  0  0  0  0  0  0
   -1.4443   -1.2246    0.0000 C   0  0  0  0  0  0  0  0  0  0  0  0
   -2.5098    0.3250    0.0000 C   0  0  0  0  0  0  0  0  0  0  0  0
   -1.0850   -0.1438    0.0000 O   0  0  0  0  0  0  0  0  0  0  0  0
   -2.3593    1.8175    0.0000 N   0  0  0  0  0  0  0  0  0  0  0  0
   -2.4940    3.3114    0.0000 C   0  0  0  0  0  0  0  0  0  0  0  0
   -1.5184    4.4508    0.0000 C   0  0  0  0  0  0  0  0  0  0  0  0
   -2.9090    4.7529    0.0000 C   0  0  0  0  0  0  0  0  0  0  0  0
   -1.6881    5.6243    0.0000 O   0  0  0  0  0  0  0  0  0  0  0  0
   -3.5893    6.0897    0.0000 N   0  0  0  0  0  0  0  0  0  0  0  0
   -4.5103    7.2737    0.0000 C   0  0  0  0  0  0  0  0  0  0  0  0
   -4.1259    8.7236    0.0000 C   0  0  0  0  0  0  0  0  0  0  0  0
   -2.7366    9.2892    0.0000 C   0  0  0  0  0  0  0  0  0  0  0  0
   -4.2605   10.2176    0.0000 C   0  0  0  0  0  0  0  0  0  0  0  0
   -3.1485   11.2242    0.0000 C   0  0  0  0  0  0  0  0  0  0  0  0
   -5.6387    8.2620    0.0000 C   0  0  0  0  0  0  0  0  0  0  0  0
   -4.7621    9.4792    0.0000 O   0  0  0  0  0  0  0  0  0  0  0  0
   -6.9337    9.0189    0.0000 N   0  0  0  0  0  0  0  0  0  0  0  0
   -8.3486    9.5170    0.0000 C   0  0  0  0  0  0  0  0  0  0  0  0
   -8.8091   10.9445    0.0000 C   0  0  0  0  0  0  0  0  0  0  0  0
   -7.8031   12.0571    0.0000 C   0  0  0  0  0  0  0  0  0  0  0  0
   -8.2636   13.4847    0.0000 C   0  0  0  0  0  0  0  0  0  0  0  0
   -7.2575   14.5973    0.0000 N   0  0  0  0  0  0  0  0  0  0  0  0
   -9.7301   13.7996    0.0000 O   0  0  0  0  0  0  0  0  0  0  0  0
   -9.8322    9.7383    0.0000 C   0  0  0  0  0  0  0  0  0  0  0  0
   -9.9361   11.2347    0.0000 O   0  0  0  0  0  0  0  0  0  0  0  0
  -11.3308    9.6748    0.0000 N   0  0  0  0  0  0  0  0  0  0  0  0
  -12.7904    9.3289    0.0000 C   0  0  0  0  0  0  0  0  0  0  0  0
  -13.9496   10.2809    0.0000 C   0  0  0  0  0  0  0  0  0  0  0  0
  -13.7048   11.7608    0.0000 C   0  0  0  0  0  0  0  0  0  0  0  0
  -14.8640   12.7128    0.0000 O   0  0  0  0  0  0  0  0  0  0  0  0
  -12.3007   12.2887    0.0000 O   0  0  0  0  0  0  0  0  0  0  0  0
  -14.1581    8.7130    0.0000 C   0  0  0  0  0  0  0  0  0  0  0  0
  -15.0545    9.9157    0.0000 O   0  0  0  0  0  0  0  0  0  0  0  0
  -15.3846    7.8494    0.0000 N   0  0  0  0  0  0  0  0  0  0  0  0
  -16.4254    6.7693    0.0000 C   0  0  0  0  0  0  0  0  0  0  0  0
  -17.9153    6.9435    0.0000 C   0  0  0  0  0  0  0  0  0  0  0  0
  -19.4061    6.7780    0.0000 O   0  0  0  0  0  0  0  0  0  0  0  0
  -18.5094    8.3208    0.0000 C   0  0  0  0  0  0  0  0  0  0  0  0
  -17.2431    5.5117    0.0000 C   0  0  0  0  0  0  0  0  0  0  0  0
  -18.6474    6.0389    0.0000 O   0  0  0  0  0  0  0  0  0  0  0  0
  -17.8079    4.1222    0.0000 N   0  0  0  0  0  0  0  0  0  0  0  0
  -18.0996    2.6508    0.0000 C   0  0  0  0  0  0  0  0  0  0  0  0
  -19.4471    1.9918    0.0000 C   0  0  0  0  0  0  0  0  0  0  0  0
  -20.6915    2.8293    0.0000 C   0  0  0  0  0  0  0  0  0  0  0  0
  -18.1075    1.1508    0.0000 C   0  0  0  0  0  0  0  0  0  0  0  0
  -19.5739    0.8350    0.0000 O   0  0  0  0  0  0  0  0  0  0  0  0
  -17.8315   -0.3236    0.0000 N   0  0  0  0  0  0  0  0  0  0  0  0
  -17.2813   -1.7190    0.0000 C   0  0  0  0  0  0  0  0  0  0  0  0
  -16.4771   -2.9852    0.0000 C   0  0  0  0  0  0  0  0  0  0  0  0
  -15.4477   -4.0763    0.0000 C   0  0  0  0  0  0  0  0  0  0  0  0
  -14.2305   -4.9528    0.0000 C   0  0  0  0  0  0  0  0  0  0  0  0
  -12.8693   -5.5831    0.0000 C   0  0  0  0  0  0  0  0  0  0  0  0
  -18.7760   -1.5923    0.0000 C   0  0  0  0  0  0  0  0  0  0  0  0
  -18.0587   -3.0019    0.0000 C   0  0  0  0  0  0  0  0  0  0  0  0
  -17.6759   -4.4523    0.0000 O   0  0  0  0  0  0  0  0  0  0  0  0
  -19.5583   -2.9702    0.0000 N   0  0  0  0  0  0  0  0  0  0  0  0
  -20.3356   -4.2531    0.0000 C   0  0  0  0  0  0  0  0  0  0  0  0
  -20.6273   -5.7244    0.0000 C   0  0  0  0  0  0  0  0  0  0  0  0
  -22.0474   -6.2075    0.0000 C   0  0  0  0  0  0  0  0  0  0  0  0
  -22.3390   -7.6789    0.0000 C   0  0  0  0  0  0  0  0  0  0  0  0
  -23.6896   -8.3315    0.0000 O   0  0  0  0  0  0  0  0  0  0  0  0
  -21.2106   -8.6672    0.0000 O   0  0  0  0  0  0  0  0  0  0  0  0
  -21.8353   -4.2213    0.0000 C   0  0  0  0  0  0  0  0  0  0  0  0
  -22.5576   -2.9067    0.0000 O   0  0  0  0  0  0  0  0  0  0  0  0
  -22.6126   -5.5042    0.0000 N   0  0  0  0  0  0  0  0  0  0  0  0
  -24.1123   -5.4725    0.0000 C   0  0  0  0  0  0  0  0  0  0  0  0
  -25.5106   -4.9297    0.0000 C   0  0  0  0  0  0  0  0  0  0  0  0
  -25.7398   -3.4473    0.0000 C   0  0  0  0  0  0  0  0  0  0  0  0
  -27.1382   -2.9046    0.0000 C   0  0  0  0  0  0  0  0  0  0  0  0
  -27.3673   -1.4222    0.0000 N   0  0  0  0  0  0  0  0  0  0  0  0
  -28.3074   -3.8443    0.0000 O   0  0  0  0  0  0  0  0  0  0  0  0
  -24.8896   -6.7554    0.0000 C   0  0  0  0  0  0  0  0  0  0  0  0
  -26.3819   -6.9067    0.0000 O   0  0  0  0  0  0  0  0  0  0  0  0
  -24.3329   -8.1482    0.0000 O   0  0  0  0  0  0  0  0  0  0  0  0
   -3.2084   -3.0149    0.0000 H   0  0  0  0  0  0  0  0  0  0  0  0
    1.1922   -3.9188    0.0000 H   0  0  0  0  0  0  0  0  0  0  0  0
    2.0554   -6.6215    0.0000 H   0  0  0  0  0  0  0  0  0  0  0  0
   -3.7462   -5.1815    0.0000 H   0  0  0  0  0  0  0  0  0  0  0  0
   -7.0286  -11.3422    0.0000 H   0  0  0  0  0  0  0  0  0  0  0  0
   -2.3559  -13.6151    0.0000 H   0  0  0  0  0  0  0  0  0  0  0  0
   -1.0419  -11.1005    0.0000 H   0  0  0  0  0  0  0  0  0  0  0  0
   -4.5083  -15.0702    0.0000 H   0  0  0  0  0  0  0  0  0  0  0  0
   -1.4818   -5.3753    0.0000 H   0  0  0  0  0  0  0  0  0  0  0  0
   -3.2611   -3.1790    0.0000 H   0  0  0  0  0  0  0  0  0  0  0  0
   -7.3264   -6.5180    0.0000 H   0  0  0  0  0  0  0  0  0  0  0  0
   -7.5805   -3.5675    0.0000 H   0  0  0  0  0  0  0  0  0  0  0  0
   -2.4187    0.0284    0.0000 H   0  0  0  0  0  0  0  0  0  0  0  0
    0.8303   -0.8070    0.0000 H   0  0  0  0  0  0  0  0  0  0  0  0
    1.2948    1.0646    0.0000 H   0  0  0  0  0  0  0  0  0  0  0  0
   -1.9618    1.7149    0.0000 H   0  0  0  0  0  0  0  0  0  0  0  0
   -1.1962    3.1582    0.0000 H   0  0  0  0  0  0  0  0  0  0  0  0
   -1.1669    5.0715    0.0000 H   0  0  0  0  0  0  0  0  0  0  0  0
    0.0660    6.4317    0.0000 H   0  0  0  0  0  0  0  0  0  0  0  0
    3.3264    3.3987    0.0000 H   0  0  0  0  0  0  0  0  0  0  0  0
    3.1228    5.3162    0.0000 H   0  0  0  0  0  0  0  0  0  0  0  0
    2.3563    1.6526    0.0000 H   0  0  0  0  0  0  0  0  0  0  0  0
   -0.5364    7.6933    0.0000 H   0  0  0  0  0  0  0  0  0  0  0  0
    2.7778    8.5658    0.0000 H   0  0  0  0  0  0  0  0  0  0  0  0
   -1.1669   10.6021    0.0000 H   0  0  0  0  0  0  0  0  0  0  0  0
    0.5146   11.1995    0.0000 H   0  0  0  0  0  0  0  0  0  0  0  0
   -1.4003    7.2496    0.0000 H   0  0  0  0  0  0  0  0  0  0  0  0
   -0.1017    7.4566    0.0000 H   0  0  0  0  0  0  0  0  0  0  0  0
   -1.6736   11.4769    0.0000 H   0  0  0  0  0  0  0  0  0  0  0  0
    4.4451    8.6806    0.0000 H   0  0  0  0  0  0  0  0  0  0  0  0
    5.7995    9.8909    0.0000 H   0  0  0  0  0  0  0  0  0  0  0  0
    2.9435   13.2522    0.0000 H   0  0  0  0  0  0  0  0  0  0  0  0
    4.5751   13.3395    0.0000 H   0  0  0  0  0  0  0  0  0  0  0  0
    1.4381   10.3005    0.0000 H   0  0  0  0  0  0  0  0  0  0  0  0
    3.0423    9.9904    0.0000 H   0  0  0  0  0  0  0  0  0  0  0  0
    0.0932   14.5520    0.0000 H   0  0  0  0  0  0  0  0  0  0  0  0
    7.5598    9.5272    0.0000 H   0  0  0  0  0  0  0  0  0  0  0  0
    9.4253   10.2411    0.0000 H   0  0  0  0  0  0  0  0  0  0  0  0
    7.8912   14.3765    0.0000 H   0  0  0  0  0  0  0  0  0  0  0  0
    9.4749   13.5542    0.0000 H   0  0  0  0  0  0  0  0  0  0  0  0
    6.6896   11.2378    0.0000 H   0  0  0  0  0  0  0  0  0  0  0  0
    4.2672   14.1567    0.0000 H   0  0  0  0  0  0  0  0  0  0  0  0
    5.3379   15.3909    0.0000 H   0  0  0  0  0  0  0  0  0  0  0  0
    7.0100   14.7677    0.0000 H   0  0  0  0  0  0  0  0  0  0  0  0
    4.0439   12.9153    0.0000 H   0  0  0  0  0  0  0  0  0  0  0  0
    4.0170   11.2817    0.0000 H   0  0  0  0  0  0  0  0  0  0  0  0
    6.3125   10.9819    0.0000 H   0  0  0  0  0  0  0  0  0  0  0  0
   10.7763    9.2574    0.0000 H   0  0  0  0  0  0  0  0  0  0  0  0
   12.7735    9.2903    0.0000 H   0  0  0  0  0  0  0  0  0  0  0  0
   12.5646   13.7246    0.0000 H   0  0  0  0  0  0  0  0  0  0  0  0
   13.9532   12.3866    0.0000 H   0  0  0  0  0  0  0  0  0  0  0  0
   10.5908   14.0310    0.0000 H   0  0  0  0  0  0  0  0  0  0  0  0
    9.5141   12.4312    0.0000 H   0  0  0  0  0  0  0  0  0  0  0  0
   10.5030   11.1810    0.0000 H   0  0  0  0  0  0  0  0  0  0  0  0
   13.7065    7.9038    0.0000 H   0  0  0  0  0  0  0  0  0  0  0  0
   15.5945    7.2516    0.0000 H   0  0  0  0  0  0  0  0  0  0  0  0
   15.1732   11.1020    0.0000 H   0  0  0  0  0  0  0  0  0  0  0  0
   16.9149   11.4900    0.0000 H   0  0  0  0  0  0  0  0  0  0  0  0
   17.7953    9.9378    0.0000 H   0  0  0  0  0  0  0  0  0  0  0  0
   15.9971    5.6297    0.0000 H   0  0  0  0  0  0  0  0  0  0  0  0
   17.5482    4.3711    0.0000 H   0  0  0  0  0  0  0  0  0  0  0  0
   20.2385    7.9022    0.0000 H   0  0  0  0  0  0  0  0  0  0  0  0
   20.4421    5.9847    0.0000 H   0  0  0  0  0  0  0  0  0  0  0  0
   17.0703    8.8722    0.0000 H   0  0  0  0  0  0  0  0  0  0  0  0
   17.0434    7.2386    0.0000 H   0  0  0  0  0  0  0  0  0  0  0  0
   21.0236   10.9350    0.0000 H   0  0  0  0  0  0  0  0  0  0  0  0
   17.3717    2.7092    0.0000 H   0  0  0  0  0  0  0  0  0  0  0  0
   18.3285    1.1652    0.0000 H   0  0  0  0  0  0  0  0  0  0  0  0
   20.5220    4.1824    0.0000 H   0  0  0  0  0  0  0  0  0  0  0  0
   22.0688    3.5907    0.0000 H   0  0  0  0  0  0  0  0  0  0  0  0
   21.9817    1.8495    0.0000 H   0  0  0  0  0  0  0  0  0  0  0  0
   17.6646   -0.5052    0.0000 H   0  0  0  0  0  0  0  0  0  0  0  0
   18.0437   -2.4664    0.0000 H   0  0  0  0  0  0  0  0  0  0  0  0
   22.3745   -1.4907    0.0000 H   0  0  0  0  0  0  0  0  0  0  0  0
   21.4704   -3.0291    0.0000 H   0  0  0  0  0  0  0  0  0  0  0  0
   18.4360    0.2713    0.0000 H   0  0  0  0  0  0  0  0  0  0  0  0
   19.9313    3.6279    0.0000 H   0  0  0  0  0  0  0  0  0  0  0  0
   22.9887    3.1228    0.0000 H   0  0  0  0  0  0  0  0  0  0  0  0
   16.8404   -3.6260    0.0000 H   0  0  0  0  0  0  0  0  0  0  0  0
   16.5808   -5.4238    0.0000 H   0  0  0  0  0  0  0  0  0  0  0  0
   20.9292   -6.1629    0.0000 H   0  0  0  0  0  0  0  0  0  0  0  0
   19.7355   -7.2784    0.0000 H   0  0  0  0  0  0  0  0  0  0  0  0
   22.3449   -2.9857    0.0000 H   0  0  0  0  0  0  0  0  0  0  0  0
   22.4566   -5.4848    0.0000 H   0  0  0  0  0  0  0  0  0  0  0  0
   14.9985   -6.2766    0.0000 H   0  0  0  0  0  0  0  0  0  0  0  0
   14.0284   -8.0227    0.0000 H   0  0  0  0  0  0  0  0  0  0  0  0
   17.8617  -10.2044    0.0000 H   0  0  0  0  0  0  0  0  0  0  0  0
   16.1200  -10.5925    0.0000 H   0  0  0  0  0  0  0  0  0  0  0  0
   16.7647   -7.0277    0.0000 H   0  0  0  0  0  0  0  0  0  0  0  0
   20.4966   -7.7066    0.0000 H   0  0  0  0  0  0  0  0  0  0  0  0
   20.4698   -9.3402    0.0000 H   0  0  0  0  0  0  0  0  0  0  0  0
   18.7883   -9.9377    0.0000 H   0  0  0  0  0  0  0  0  0  0  0  0
   19.8698   -6.6121    0.0000 H   0  0  0  0  0  0  0  0  0  0  0  0
   18.8402   -5.3434    0.0000 H   0  0  0  0  0  0  0  0  0  0  0  0
   16.8891   -6.5893    0.0000 H   0  0  0  0  0  0  0  0  0  0  0  0
   12.3612   -8.1375    0.0000 H   0  0  0  0  0  0  0  0  0  0  0  0
   10.8523   -9.4464    0.0000 H   0  0  0  0  0  0  0  0  0  0  0  0
   13.8627  -12.7091    0.0000 H   0  0  0  0  0  0  0  0  0  0  0  0
   11.9389  -12.5766    0.0000 H   0  0  0  0  0  0  0  0  0  0  0  0
   15.5717  -11.6750    0.0000 H   0  0  0  0  0  0  0  0  0  0  0  0
    9.2464   -8.9841    0.0000 H   0  0  0  0  0  0  0  0  0  0  0  0
    7.5597   -9.6582    0.0000 H   0  0  0  0  0  0  0  0  0  0  0  0
    7.5308  -13.3176    0.0000 H   0  0  0  0  0  0  0  0  0  0  0  0
   10.4947  -14.3297    0.0000 H   0  0  0  0  0  0  0  0  0  0  0  0
   11.1724  -13.2920    0.0000 H   0  0  0  0  0  0  0  0  0  0  0  0
   11.5179  -11.5348    0.0000 H   0  0  0  0  0  0  0  0  0  0  0  0
   10.1611  -10.6982    0.0000 H   0  0  0  0  0  0  0  0  0  0  0  0
    6.0299   -8.7143    0.0000 H   0  0  0  0  0  0  0  0  0  0  0  0
    4.2144   -8.7709    0.0000 H   0  0  0  0  0  0  0  0  0  0  0  0
    4.0599  -13.1578    0.0000 H   0  0  0  0  0  0  0  0  0  0  0  0
    2.9357  -12.1997    0.0000 H   0  0  0  0  0  0  0  0  0  0  0  0
    6.2626  -10.6194    0.0000 H   0  0  0  0  0  0  0  0  0  0  0  0
    7.5406  -14.1908    0.0000 H   0  0  0  0  0  0  0  0  0  0  0  0
    6.1124  -14.9844    0.0000 H   0  0  0  0  0  0  0  0  0  0  0  0
    4.7543  -13.8269    0.0000 H   0  0  0  0  0  0  0  0  0  0  0  0
    8.1750  -13.1007    0.0000 H   0  0  0  0  0  0  0  0  0  0  0  0
    8.7590  -11.5748    0.0000 H   0  0  0  0  0  0  0  0  0  0  0  0
    6.7045  -10.5080    0.0000 H   0  0  0  0  0  0  0  0  0  0  0  0
    3.0997   -7.3607    0.0000 H   0  0  0  0  0  0  0  0  0  0  0  0
    1.6627   -7.0178    0.0000 H   0  0  0  0  0  0  0  0  0  0  0  0
   -0.2713  -10.8625    0.0000 H   0  0  0  0  0  0  0  0  0  0  0  0
   -0.8997  -10.1152    0.0000 H   0  0  0  0  0  0  0  0  0  0  0  0
    2.6667   -9.2305    0.0000 H   0  0  0  0  0  0  0  0  0  0  0  0
    2.6462  -13.0236    0.0000 H   0  0  0  0  0  0  0  0  0  0  0  0
    1.0327  -13.2809    0.0000 H   0  0  0  0  0  0  0  0  0  0  0  0
    0.1523  -11.7287    0.0000 H   0  0  0  0  0  0  0  0  0  0  0  0
    3.6152  -12.2162    0.0000 H   0  0  0  0  0  0  0  0  0  0  0  0
    4.6859  -10.9821    0.0000 H   0  0  0  0  0  0  0  0  0  0  0  0
    3.1201   -9.2769    0.0000 H   0  0  0  0  0  0  0  0  0  0  0  0
    0.9286   -5.4322    0.0000 H   0  0  0  0  0  0  0  0  0  0  0  0
   -0.7419   -3.8280    0.0000 H   0  0  0  0  0  0  0  0  0  0  0  0
   -3.6627   -7.0752    0.0000 H   0  0  0  0  0  0  0  0  0  0  0  0
   -3.8534   -5.9433    0.0000 H   0  0  0  0  0  0  0  0  0  0  0  0
   -0.5037   -8.6054    0.0000 H   0  0  0  0  0  0  0  0  0  0  0  0
   -0.2372   -6.6955    0.0000 H   0  0  0  0  0  0  0  0  0  0  0  0
   -4.2174  -10.3919    0.0000 H   0  0  0  0  0  0  0  0  0  0  0  0
   -0.6078   -2.7114    0.0000 H   0  0  0  0  0  0  0  0  0  0  0  0
   -2.3253   -3.1738    0.0000 H   0  0  0  0  0  0  0  0  0  0  0  0
   -2.9969   -3.7993    0.0000 H   0  0  0  0  0  0  0  0  0  0  0  0
   -3.2211   -4.2762    0.0000 H   0  0  0  0  0  0  0  0  0  0  0  0
   -4.7445   -5.1053    0.0000 H   0  0  0  0  0  0  0  0  0  0  0  0
   -4.6283   -5.6346    0.0000 H   0  0  0  0  0  0  0  0  0  0  0  0
   -5.8027   -6.0889    0.0000 H   0  0  0  0  0  0  0  0  0  0  0  0
   -5.6724   -6.0146    0.0000 H   0  0  0  0  0  0  0  0  0  0  0  0
   -7.2074   -6.8220    0.0000 H   0  0  0  0  0  0  0  0  0  0  0  0
   -7.6539   -7.1019    0.0000 H   0  0  0  0  0  0  0  0  0  0  0  0
   -8.7284   -7.2882    0.0000 H   0  0  0  0  0  0  0  0  0  0  0  0
   -9.2290   -7.3574    0.0000 H   0  0  0  0  0  0  0  0  0  0  0  0
  -10.6518   -7.3307    0.0000 H   0  0  0  0  0  0  0  0  0  0  0  0
  -11.6348   -7.4281    0.0000 H   0  0  0  0  0  0  0  0  0  0  0  0
   -0.6066   -2.1223    0.0000 H   0  0  0  0  0  0  0  0  0  0  0  0
    0.1534   -0.6507    0.0000 H   0  0  0  0  0  0  0  0  0  0  0  0
   -1.7465    0.6034    0.0000 H   0  0  0  0  0  0  0  0  0  0  0  0
   -0.9059    1.4468    0.0000 H   0  0  0  0  0  0  0  0  0  0  0  0
   -1.0399    2.9432    0.0000 H   0  0  0  0  0  0  0  0  0  0  0  0
   -0.1436    3.5098    0.0000 H   0  0  0  0  0  0  0  0  0  0  0  0
   -0.6924    5.6529    0.0000 H   0  0  0  0  0  0  0  0  0  0  0  0
   -2.3537    5.4705    0.0000 H   0  0  0  0  0  0  0  0  0  0  0  0
   -2.1661    6.5637    0.0000 H   0  0  0  0  0  0  0  0  0  0  0  0
   -3.0117    7.2086    0.0000 H   0  0  0  0  0  0  0  0  0  0  0  0
   -5.5454    9.2083    0.0000 H   0  0  0  0  0  0  0  0  0  0  0  0
   -2.2729   10.5740    0.0000 H   0  0  0  0  0  0  0  0  0  0  0  0
   -1.3445    8.6077    0.0000 H   0  0  0  0  0  0  0  0  0  0  0  0
   -2.1080    7.7422    0.0000 H   0  0  0  0  0  0  0  0  0  0  0  0
   -4.8981   11.5753    0.0000 H   0  0  0  0  0  0  0  0  0  0  0  0
   -5.7454   10.0049    0.0000 H   0  0  0  0  0  0  0  0  0  0  0  0
   -3.1688   12.5751    0.0000 H   0  0  0  0  0  0  0  0  0  0  0  0
   -1.6282   11.6618    0.0000 H   0  0  0  0  0  0  0  0  0  0  0  0
   -2.5851    9.6429    0.0000 H   0  0  0  0  0  0  0  0  0  0  0  0
   -6.3034   10.3800    0.0000 H   0  0  0  0  0  0  0  0  0  0  0  0
   -7.1545   10.4247    0.0000 H   0  0  0  0  0  0  0  0  0  0  0  0
   -9.5789   12.2319    0.0000 H   0  0  0  0  0  0  0  0  0  0  0  0
  -10.2653   10.5848    0.0000 H   0  0  0  0  0  0  0  0  0  0  0  0
   -6.4771   12.7585    0.0000 H   0  0  0  0  0  0  0  0  0  0  0  0
   -6.6229   11.1312    0.0000 H   0  0  0  0  0  0  0  0  0  0  0  0
   -7.7180   16.0248    0.0000 H   0  0  0  0  0  0  0  0  0  0  0  0
   -5.7909   14.2823    0.0000 H   0  0  0  0  0  0  0  0  0  0  0  0
  -11.5365   11.1607    0.0000 H   0  0  0  0  0  0  0  0  0  0  0  0
  -12.4522   10.7903    0.0000 H   0  0  0  0  0  0  0  0  0  0  0  0
  -15.2932   10.9477    0.0000 H   0  0  0  0  0  0  0  0  0  0  0  0
  -14.9802    9.1910    0.0000 H   0  0  0  0  0  0  0  0  0  0  0  0
  -12.0559   13.7686    0.0000 H   0  0  0  0  0  0  0  0  0  0  0  0
  -16.2148    9.0987    0.0000 H   0  0  0  0  0  0  0  0  0  0  0  0
  -16.7551    8.2326    0.0000 H   0  0  0  0  0  0  0  0  0  0  0  0
  -18.1930    5.4694    0.0000 H   0  0  0  0  0  0  0  0  0  0  0  0
  -20.5078    7.5601    0.0000 H   0  0  0  0  0  0  0  0  0  0  0  0
  -19.9669    8.6752    0.0000 H   0  0  0  0  0  0  0  0  0  0  0  0
  -18.5966    9.8182    0.0000 H   0  0  0  0  0  0  0  0  0  0  0  0
  -17.1769    9.0096    0.0000 H   0  0  0  0  0  0  0  0  0  0  0  0
  -19.1818    4.7243    0.0000 H   0  0  0  0  0  0  0  0  0  0  0  0
  -19.1680    3.7036    0.0000 H   0  0  0  0  0  0  0  0  0  0  0  0
  -20.6118    1.0466    0.0000 H   0  0  0  0  0  0  0  0  0  0  0  0
  -18.8838    0.6016    0.0000 H   0  0  0  0  0  0  0  0  0  0  0  0
  -22.0390    2.1703    0.0000 H   0  0  0  0  0  0  0  0  0  0  0  0
  -21.5745    4.0419    0.0000 H   0  0  0  0  0  0  0  0  0  0  0  0
  -19.9430    4.1292    0.0000 H   0  0  0  0  0  0  0  0  0  0  0  0
  -19.3127   -0.5597    0.0000 H   0  0  0  0  0  0  0  0  0  0  0  0
  -16.9975   -4.3920    0.0000 H   0  0  0  0  0  0  0  0  0  0  0  0
  -17.8860   -3.4998    0.0000 H   0  0  0  0  0  0  0  0  0  0  0  0
  -15.8711   -5.5153    0.0000 H   0  0  0  0  0  0  0  0  0  0  0  0
  -16.7338   -4.8482    0.0000 H   0  0  0  0  0  0  0  0  0  0  0  0
  -14.1908   -6.4523    0.0000 H   0  0  0  0  0  0  0  0  0  0  0  0
  -15.4610   -5.8106    0.0000 H   0  0  0  0  0  0  0  0  0  0  0  0
  -13.3674   -6.9980    0.0000 H   0  0  0  0  0  0  0  0  0  0  0  0
  -19.9055   -2.5793    0.0000 H   0  0  0  0  0  0  0  0  0  0  0  0
  -20.1371   -0.9619    0.0000 H   0  0  0  0  0  0  0  0  0  0  0  0
  -18.7538   -0.0924    0.0000 H   0  0  0  0  0  0  0  0  0  0  0  0
  -20.4355   -1.7534    0.0000 H   0  0  0  0  0  0  0  0  0  0  0  0
  -18.9373   -4.7958    0.0000 H   0  0  0  0  0  0  0  0  0  0  0  0
  -20.3981   -7.2068    0.0000 H   0  0  0  0  0  0  0  0  0  0  0  0
  -19.1276   -5.7562    0.0000 H   0  0  0  0  0  0  0  0  0  0  0  0
  -23.5470   -6.1758    0.0000 H   0  0  0  0  0  0  0  0  0  0  0  0
  -22.9458   -5.0063    0.0000 H   0  0  0  0  0  0  0  0  0  0  0  0
  -21.5023  -10.1386    0.0000 H   0  0  0  0  0  0  0  0  0  0  0  0
  -22.2298   -6.9546    0.0000 H   0  0  0  0  0  0  0  0  0  0  0  0
  -23.6434   -4.0476    0.0000 H   0  0  0  0  0  0  0  0  0  0  0  0
  -27.0103   -4.8980    0.0000 H   0  0  0  0  0  0  0  0  0  0  0  0
  -25.9795   -6.3546    0.0000 H   0  0  0  0  0  0  0  0  0  0  0  0
  -25.4481   -1.9760    0.0000 H   0  0  0  0  0  0  0  0  0  0  0  0
  -24.2475   -3.2960    0.0000 H   0  0  0  0  0  0  0  0  0  0  0  0
  -28.7657   -0.8795    0.0000 H   0  0  0  0  0  0  0  0  0  0  0  0
  -26.1981   -0.4826    0.0000 H   0  0  0  0  0  0  0  0  0  0  0  0
  -24.9446   -9.3529    0.0000 H   0  0  0  0  0  0  0  0  0  0  0  0
  1  2  1  0
  2  3  1  0
  3  4  2  0
  4  5  1  0
  5  6  2  0
  6  7  1  0
  7  8  2  0
  7  9  1  0
  9 10  1  0
 10 11  1  0
 11 12  2  0
  9 13  1  0
 13 14  1  0
 14 15  2  0
 15 16  1  0
 16 17  2  0
 17 18  1  0
 16 19  1  0
 14 20  1  0
 20 21  1  0
 21 22  2  0
 22 23  1  0
 23 24  2  0
 24 25  1  0
 25 26  2  0
 25 27  1  0
  1 28  2  0
  1 29  1  0
 29 30  1  0
 30 31  1  0
 31 32  1  0
 32 33  2  0
 32 34  1  0
 34 35  1  0
 35 36  1  0
 36 37  1  0
 35 38  1  0
 38 39  2  0
 38 40  1  0
 40 41  1  0
 41 42  1  0
 42 43  1  0
 43 44  1  0
 44 45  2  0
 44 46  1  0
 41 47  1  0
 47 48  2  0
 47 49  1  0
 49 50  1  0
 50 51  1  0
 51 52  1  0
 52 53  1  0
 53 54  2  0
 53 55  1  0
 50 56  1  0
 56 57  2  0
 56 58  1  0
 58 59  1  0
 59 60  1  0
 60 61  1  0
 61 62  1  0
 61 63  1  0
 59 64  1  0
 64 65  2  0
 64 66  1  0
 66 67  1  0
 67 68  1  0
 68 69  1  0
 67 70  1  0
 70 71  2  0
 70 72  1  0
 72 73  1  0
 73 74  1  0
 73 75  1  0
 75 76  2  0
 75 77  1  0
 77 78  1  0
 78 79  1  0
 79 80  1  0
 80 81  1  0
 81 82  2  0
 81 83  1  0
 78 84  1  0
 84 85  2  0
 84 86  1  0
 86 87  1  0
 87 88  1  0
 87 89  1  0
 89 90  2  0
 89 91  1  0
 91 92  1  0
 92 93  1  0
 93 94  1  0
 94 95  2  0
 95 96  1  0
 96 97  1  0
 97 98  2  0
 92 99  1  0
 99100  2  0
 99101  1  0
101102  1  0
102103  1  0
103104  1  0
104105  1  0
104106  2  0
102107  1  0
107108  2  0
107109  1  0
109110  1  0
110111  1  0
111112  1  0
112113  1  0
112114  1  0
110115  1  0
115116  2  0
115117  1  0
117118  1  0
118119  1  0
119120  1  0
118121  1  0
121122  2  0
121123  1  0
123124  1  0
124125  1  0
125126  1  0
125127  1  0
124128  1  0
128129  2  0
128130  1  0
130131  1  0
131132  1  0
132133  1  0
133134  1  0
133135  1  0
131136  1  0
136137  2  0
136138  1  0
138139  1  0
139140  1  0
140141  1  0
141142  1  0
141143  1  0
139144  1  0
144145  2  0
144146  1  0
146147  1  0
147148  1  0
148149  1  0
149150  1  0
150151  2  0
150152  1  0
147153  1  0
153154  2  0
153155  1  0
156155  1  6
156157  1  0
157158  1  0
158159  1  0
159160  1  0
160161  1  0
161162  1  0
162163  1  0
156164  1  0
156165  1  0
165166  2  0
165167  1  0
167168  1  0
168169  1  0
168170  1  0
170171  2  0
170172  1  0
172173  1  0
173174  1  0
174175  1  0
174176  1  0
176177  1  0
173178  1  0
178179  2  0
178180  1  0
180181  1  0
181182  1  0
182183  1  0
183184  1  0
184185  1  0
184186  2  0
181187  1  0
187188  2  0
187189  1  0
189190  1  0
190191  1  0
191192  1  0
192193  2  0
192194  1  0
190195  1  0
195196  2  0
195197  1  0
197198  1  0
198199  1  0
199200  1  0
199201  1  0
198202  1  0
202203  2  0
202204  1  0
204205  1  0
205206  1  0
206207  1  0
205208  1  0
208209  2  0
208210  1  0
210211  1  0
211212  1  0
212213  1  0
213214  1  0
214215  1  0
211216  1  0
211217  1  1
217218  2  0
217219  1  0
219220  1  0
220221  1  0
221222  1  0
222223  1  0
223224  2  0
223225  1  0
220226  1  0
226227  2  0
226228  1  0
228229  1  0
229230  1  0
230231  1  0
231232  1  0
232233  1  0
232234  2  0
229235  1  0
235236  2  0
235237  1  0
  8  3  1  0
 98 94  1  0
 11  6  1  0
163215  2  0
 18 13  2  0
 22  9  1  0
 26 21  1  0
  2238  1  0
  4239  1  0
  5240  1  0
  8241  1  0
 15242  1  0
 17243  1  0
 18244  1  0
 19245  1  0
 23246  1  0
 24247  1  0
 26248  1  0
 27249  1  0
 29250  1  0
 30251  1  0
 30252  1  0
 31253  1  0
 31254  1  0
 34255  1  0
 35256  1  6
 36257  1  0
 36258  1  0
 37259  1  0
 40260  1  0
 41261  1  1
 42262  1  0
 42263  1  0
 43264  1  0
 43265  1  0
 46266  1  0
 49267  1  0
 50268  1  1
 51269  1  0
 51270  1  0
 52271  1  0
 52272  1  0
 55273  1  0
 58274  1  0
 59275  1  1
 60276  1  0
 60277  1  0
 61278  1  0
 62279  1  0
 62280  1  0
 62281  1  0
 63282  1  0
 63283  1  0
 63284  1  0
 66285  1  0
 67286  1  1
 68287  1  0
 68288  1  0
 69289  1  0
 69290  1  0
 69291  1  0
 72292  1  0
 73293  1  1
 74294  1  0
 74295  1  0
 74296  1  0
 77297  1  0
 78298  1  1
 79299  1  0
 79300  1  0
 80301  1  0
 80302  1  0
 83303  1  0
 86304  1  0
 87305  1  1
 88306  1  0
 88307  1  0
 88308  1  0
 91309  1  0
 92310  1  1
 93311  1  0
 93312  1  0
 95313  1  0
 96314  1  0
 97315  1  0
101316  1  0
102317  1  1
103318  1  0
103319  1  0
105320  1  0
105321  1  0
109322  1  0
110323  1  1
111324  1  0
111325  1  0
112326  1  0
113327  1  0
113328  1  0
113329  1  0
114330  1  0
114331  1  0
114332  1  0
117333  1  0
118334  1  1
119335  1  0
119336  1  0
120337  1  0
123338  1  0
124339  1  1
125340  1  6
126341  1  0
127342  1  0
127343  1  0
127344  1  0
130345  1  0
131346  1  1
132347  1  0
132348  1  0
133349  1  0
134350  1  0
134351  1  0
134352  1  0
135353  1  0
135354  1  0
135355  1  0
138356  1  0
139357  1  1
140358  1  0
140359  1  0
141360  1  0
142361  1  0
142362  1  0
142363  1  0
143364  1  0
143365  1  0
143366  1  0
146367  1  0
147368  1  1
148369  1  0
148370  1  0
149371  1  0
149372  1  0
152373  1  0
155374  1  0
157375  1  0
157376  1  0
158377  1  0
158378  1  0
159379  1  0
159380  1  0
160381  1  0
160382  1  0
161383  1  0
161384  1  0
162385  1  0
162386  1  0
163387  1  0
164388  1  0
164389  1  0
164390  1  0
167391  1  0
168392  1  6
169393  1  0
169394  1  0
169395  1  0
172396  1  0
173397  1  6
174398  1  1
175399  1  0
175400  1  0
175401  1  0
176402  1  0
176403  1  0
177404  1  0
177405  1  0
177406  1  0
180407  1  0
181408  1  6
182409  1  0
182410  1  0
183411  1  0
183412  1  0
185413  1  0
185414  1  0
189415  1  0
190416  1  6
191417  1  0
191418  1  0
194419  1  0
197420  1  0
198421  1  6
199422  1  1
200423  1  0
201424  1  0
201425  1  0
201426  1  0
204427  1  0
205428  1  6
206429  1  0
206430  1  0
207431  1  0
207432  1  0
207433  1  0
210434  1  0
212435  1  0
212436  1  0
213437  1  0
213438  1  0
214439  1  0
214440  1  0
215441  1  0
216442  1  0
216443  1  0
216444  1  0
219445  1  0
220446  1  1
221447  1  0
221448  1  0
222449  1  0
222450  1  0
225451  1  0
228452  1  0
229453  1  6
230454  1  0
230455  1  0
231456  1  0
231457  1  0
233458  1  0
233459  1  0
237460  1  0
M  END
