
     RDKit          2D

328336  0  0  0  0  0  0  0  0999 V2000
   32.4741   -0.8659    0.0000 C   0  0  0  0  0  0  0  0  0  0  0  0
   33.7822   -0.1317    0.0000 N   0  0  0  0  0  0  0  0  0  0  0  0
   35.0720   -0.8974    0.0000 C   0  0  0  0  0  0  0  0  0  0  0  0
   35.0538   -2.3973    0.0000 C   0  0  0  0  0  0  0  0  0  0  0  0
   36.3436   -3.1630    0.0000 C   0  0  0  0  0  0  0  0  0  0  0  0
   37.6517   -2.4289    0.0000 C   0  0  0  0  0  0  0  0  0  0  0  0
   37.6699   -0.9290    0.0000 C   0  0  0  0  0  0  0  0  0  0  0  0
   36.3801   -0.1632    0.0000 C   0  0  0  0  0  0  0  0  0  0  0  0
   39.1020   -0.4828    0.0000 C   0  0  0  0  0  0  0  0  0  0  0  0
   39.9689   -1.7070    0.0000 O   0  0  0  0  0  0  0  0  0  0  0  0
   39.0725   -2.9097    0.0000 C   0  0  0  0  0  0  0  0  0  0  0  0
   39.5187   -4.3418    0.0000 O   0  0  0  0  0  0  0  0  0  0  0  0
   40.5729   -0.1888    0.0000 C   0  0  0  0  0  0  0  0  0  0  0  0
   41.0537    1.2321    0.0000 C   0  0  0  0  0  0  0  0  0  0  0  0
   42.5246    1.5261    0.0000 C   0  0  0  0  0  0  0  0  0  0  0  0
   43.5147    0.3993    0.0000 C   0  0  0  0  0  0  0  0  0  0  0  0
   43.0339   -1.0216    0.0000 C   0  0  0  0  0  0  0  0  0  0  0  0
   41.5630   -1.3156    0.0000 C   0  0  0  0  0  0  0  0  0  0  0  0
   44.9856    0.6933    0.0000 O   0  0  0  0  0  0  0  0  0  0  0  0
   40.0636    2.3589    0.0000 O   0  0  0  0  0  0  0  0  0  0  0  0
   38.5927    2.0649    0.0000 C   0  0  0  0  0  0  0  0  0  0  0  0
   38.1119    0.6440    0.0000 C   0  0  0  0  0  0  0  0  0  0  0  0
   36.8654    1.0131    0.0000 C   0  0  0  0  0  0  0  0  0  0  0  0
   36.3374    1.6140    0.0000 C   0  0  0  0  0  0  0  0  0  0  0  0
   36.5938    2.3718    0.0000 C   0  0  0  0  0  0  0  0  0  0  0  0
   37.3783    2.5286    0.0000 C   0  0  0  0  0  0  0  0  0  0  0  0
   35.1417    4.0245    0.0000 O   0  0  0  0  0  0  0  0  0  0  0  0
   32.4559   -2.3657    0.0000 S   0  0  0  0  0  0  0  0  0  0  0  0
   31.1843   -0.1001    0.0000 N   0  0  0  0  0  0  0  0  0  0  0  0
   29.8762   -0.8343    0.0000 C   0  0  0  0  0  0  0  0  0  0  0  0
   28.5864   -0.0686    0.0000 C   0  0  0  0  0  0  0  0  0  0  0  0
   27.2784   -0.8027    0.0000 O   0  0  0  0  0  0  0  0  0  0  0  0
   25.9885   -0.0370    0.0000 C   0  0  0  0  0  0  0  0  0  0  0  0
   24.6805   -0.7712    0.0000 O   0  0  0  0  0  0  0  0  0  0  0  0
   23.3906   -0.0055    0.0000 C   0  0  0  0  0  0  0  0  0  0  0  0
   22.0826   -0.7396    0.0000 C   0  0  0  0  0  0  0  0  0  0  0  0
   20.7928    0.0261    0.0000 O   0  0  0  0  0  0  0  0  0  0  0  0
   19.4847   -0.7081    0.0000 C   0  0  0  0  0  0  0  0  0  0  0  0
   18.1949    0.0577    0.0000 C   0  0  0  0  0  0  0  0  0  0  0  0
   16.8868   -0.6765    0.0000 C   0  0  0  0  0  0  0  0  0  0  0  0
   16.8686   -2.1764    0.0000 O   0  0  0  0  0  0  0  0  0  0  0  0
   15.5970    0.0892    0.0000 N   0  0  0  0  0  0  0  0  0  0  0  0
   14.2889   -0.6449    0.0000 C   0  0  0  0  0  0  0  0  0  0  0  0
   13.3109   -1.7822    0.0000 C   0  0  0  0  0  0  0  0  0  0  0  0
   11.8369   -1.5038    0.0000 C   0  0  0  0  0  0  0  0  0  0  0  0
   10.8589   -2.6411    0.0000 C   0  0  0  0  0  0  0  0  0  0  0  0
    9.3849   -2.3627    0.0000 C   0  0  0  0  0  0  0  0  0  0  0  0
    8.4069   -3.5000    0.0000 N   0  0  0  0  0  0  0  0  0  0  0  0
   12.9991    0.1208    0.0000 C   0  0  0  0  0  0  0  0  0  0  0  0
   13.0173    1.6207    0.0000 O   0  0  0  0  0  0  0  0  0  0  0  0
   11.6911   -0.6134    0.0000 N   0  0  0  0  0  0  0  0  0  0  0  0
   10.4012    0.1523    0.0000 C   0  0  0  0  0  0  0  0  0  0  0  0
    9.4511    1.3130    0.0000 C   0  0  0  0  0  0  0  0  0  0  0  0
    9.9812    2.7162    0.0000 C   0  0  0  0  0  0  0  0  0  0  0  0
    9.0310    3.8769    0.0000 C   0  0  0  0  0  0  0  0  0  0  0  0
    9.5611    5.2801    0.0000 N   0  0  0  0  0  0  0  0  0  0  0  0
    7.5508    3.6344    0.0000 O   0  0  0  0  0  0  0  0  0  0  0  0
    9.0932   -0.5818    0.0000 C   0  0  0  0  0  0  0  0  0  0  0  0
    8.7849   -1.7571    0.0000 O   0  0  0  0  0  0  0  0  0  0  0  0
    7.8033    0.1839    0.0000 N   0  0  0  0  0  0  0  0  0  0  0  0
    6.4953   -0.5503    0.0000 C   0  0  0  0  0  0  0  0  0  0  0  0
    5.5172   -1.6875    0.0000 C   0  0  0  0  0  0  0  0  0  0  0  0
    4.0433   -1.4091    0.0000 C   0  0  0  0  0  0  0  0  0  0  0  0
    3.5474    0.0065    0.0000 C   0  0  0  0  0  0  0  0  0  0  0  0
    4.3796    1.2545    0.0000 F   0  0  0  0  0  0  0  0  0  0  0  0
    2.0735    0.2849    0.0000 C   0  0  0  0  0  0  0  0  0  0  0  0
    1.2498    1.5385    0.0000 F   0  0  0  0  0  0  0  0  0  0  0  0
    1.0954   -0.8524    0.0000 C   0  0  0  0  0  0  0  0  0  0  0  0
   -0.3785   -0.5740    0.0000 F   0  0  0  0  0  0  0  0  0  0  0  0
    1.5913   -2.2680    0.0000 C   0  0  0  0  0  0  0  0  0  0  0  0
    0.6132   -3.4053    0.0000 F   0  0  0  0  0  0  0  0  0  0  0  0
    3.0652   -2.5464    0.0000 C   0  0  0  0  0  0  0  0  0  0  0  0
    3.5611   -3.9621    0.0000 F   0  0  0  0  0  0  0  0  0  0  0  0
    5.2055    0.2155    0.0000 C   0  0  0  0  0  0  0  0  0  0  0  0
    5.4064    1.7019    0.0000 O   0  0  0  0  0  0  0  0  0  0  0  0
    3.8974   -0.5187    0.0000 N   0  0  0  0  0  0  0  0  0  0  0  0
    2.6076    0.2470    0.0000 C   0  0  0  0  0  0  0  0  0  0  0  0
    1.6574    1.4077    0.0000 C   0  0  0  0  0  0  0  0  0  0  0  0
    2.1875    2.8109    0.0000 C   0  0  0  0  0  0  0  0  0  0  0  0
    1.2374    3.9716    0.0000 C   0  0  0  0  0  0  0  0  0  0  0  0
    1.7675    5.3748    0.0000 N   0  0  0  0  0  0  0  0  0  0  0  0
    0.8173    6.5355    0.0000 C   0  0  0  0  0  0  0  0  0  0  0  0
    1.3475    7.9387    0.0000 N   0  0  0  0  0  0  0  0  0  0  0  0
   -0.6629    6.2930    0.0000 N   0  0  0  0  0  0  0  0  0  0  0  0
    1.2995   -0.4872    0.0000 C   0  0  0  0  0  0  0  0  0  0  0  0
    0.9189   -1.9381    0.0000 O   0  0  0  0  0  0  0  0  0  0  0  0
    0.0097    0.2786    0.0000 N   0  0  0  0  0  0  0  0  0  0  0  0
   -1.2984   -0.4556    0.0000 C   0  0  0  0  0  0  0  0  0  0  0  0
   -2.2764   -1.5929    0.0000 C   0  0  0  0  0  0  0  0  0  0  0  0
   -3.7504   -1.3145    0.0000 C   0  0  0  0  0  0  0  0  0  0  0  0
   -4.7284   -2.4517    0.0000 C   0  0  0  0  0  0  0  0  0  0  0  0
   -6.2024   -2.1733    0.0000 C   0  0  0  0  0  0  0  0  0  0  0  0
   -7.1804   -3.3106    0.0000 N   0  0  0  0  0  0  0  0  0  0  0  0
   -2.5882    0.3101    0.0000 C   0  0  0  0  0  0  0  0  0  0  0  0
   -2.5700    1.8100    0.0000 O   0  0  0  0  0  0  0  0  0  0  0  0
   -3.8963   -0.4240    0.0000 N   0  0  0  0  0  0  0  0  0  0  0  0
   -5.1861    0.3417    0.0000 C   0  0  0  0  0  0  0  0  0  0  0  0
   -6.1362    1.5024    0.0000 C   0  0  0  0  0  0  0  0  0  0  0  0
   -5.6061    2.9056    0.0000 C   0  0  0  0  0  0  0  0  0  0  0  0
   -6.5563    4.0663    0.0000 C   0  0  0  0  0  0  0  0  0  0  0  0
   -6.0262    5.4695    0.0000 C   0  0  0  0  0  0  0  0  0  0  0  0
   -6.9763    6.6302    0.0000 N   0  0  0  0  0  0  0  0  0  0  0  0
   -6.4941   -0.3925    0.0000 C   0  0  0  0  0  0  0  0  0  0  0  0
   -6.8748   -1.8434    0.0000 O   0  0  0  0  0  0  0  0  0  0  0  0
   -7.7840    0.3732    0.0000 N   0  0  0  0  0  0  0  0  0  0  0  0
   -9.0920   -0.3609    0.0000 C   0  0  0  0  0  0  0  0  0  0  0  0
  -10.0701   -1.4982    0.0000 C   0  0  0  0  0  0  0  0  0  0  0  0
  -11.5022   -1.9445    0.0000 O   0  0  0  0  0  0  0  0  0  0  0  0
  -10.3819    0.4048    0.0000 C   0  0  0  0  0  0  0  0  0  0  0  0
  -10.1809    1.8913    0.0000 O   0  0  0  0  0  0  0  0  0  0  0  0
  -11.6899   -0.3294    0.0000 N   0  0  0  0  0  0  0  0  0  0  0  0
  -12.9797    0.4364    0.0000 C   0  0  0  0  0  0  0  0  0  0  0  0
  -13.2591    1.9101    0.0000 C   0  0  0  0  0  0  0  0  0  0  0  0
  -13.9604    3.2361    0.0000 C   0  0  0  0  0  0  0  0  0  0  0  0
  -15.0214    4.2964    0.0000 C   0  0  0  0  0  0  0  0  0  0  0  0
  -16.3478    4.9969    0.0000 C   0  0  0  0  0  0  0  0  0  0  0  0
  -11.6555    1.1410    0.0000 C   0  0  0  0  0  0  0  0  0  0  0  0
  -13.1472   -1.0543    0.0000 C   0  0  0  0  0  0  0  0  0  0  0  0
  -11.8351   -1.7811    0.0000 O   0  0  0  0  0  0  0  0  0  0  0  0
  -13.7466   -2.4293    0.0000 N   0  0  0  0  0  0  0  0  0  0  0  0
  -14.7247   -3.5666    0.0000 C   0  0  0  0  0  0  0  0  0  0  0  0
  -14.5191   -5.0524    0.0000 C   0  0  0  0  0  0  0  0  0  0  0  0
  -13.1296   -5.6174    0.0000 C   0  0  0  0  0  0  0  0  0  0  0  0
  -12.9241   -7.1032    0.0000 C   0  0  0  0  0  0  0  0  0  0  0  0
  -11.5345   -7.6681    0.0000 C   0  0  0  0  0  0  0  0  0  0  0  0
  -10.3505   -6.7472    0.0000 C   0  0  0  0  0  0  0  0  0  0  0  0
  -10.5560   -5.2614    0.0000 C   0  0  0  0  0  0  0  0  0  0  0  0
  -11.9456   -4.6964    0.0000 C   0  0  0  0  0  0  0  0  0  0  0  0
  -15.9945   -4.3650    0.0000 C   0  0  0  0  0  0  0  0  0  0  0  0
  -15.3942   -5.7397    0.0000 O   0  0  0  0  0  0  0  0  0  0  0  0
  -17.4433   -4.7537    0.0000 N   0  0  0  0  0  0  0  0  0  0  0  0
  -18.9422   -4.6981    0.0000 C   0  0  0  0  0  0  0  0  0  0  0  0
  -19.9758   -5.7852    0.0000 C   0  0  0  0  0  0  0  0  0  0  0  0
  -19.5511   -7.2238    0.0000 C   0  0  0  0  0  0  0  0  0  0  0  0
  -20.5846   -8.3109    0.0000 C   0  0  0  0  0  0  0  0  0  0  0  0
  -20.1599   -9.7496    0.0000 C   0  0  0  0  0  0  0  0  0  0  0  0
  -18.7017  -10.1011    0.0000 C   0  0  0  0  0  0  0  0  0  0  0  0
  -17.6682   -9.0140    0.0000 C   0  0  0  0  0  0  0  0  0  0  0  0
  -18.0929   -7.5754    0.0000 C   0  0  0  0  0  0  0  0  0  0  0  0
  -20.3582   -4.2031    0.0000 C   0  0  0  0  0  0  0  0  0  0  0  0
  -21.0587   -5.5295    0.0000 O   0  0  0  0  0  0  0  0  0  0  0  0
  -21.5654   -3.3128    0.0000 N   0  0  0  0  0  0  0  0  0  0  0  0
  -22.4565   -2.1062    0.0000 C   0  0  0  0  0  0  0  0  0  0  0  0
  -23.9509   -1.9759    0.0000 C   0  0  0  0  0  0  0  0  0  0  0  0
  -24.8108   -3.2049    0.0000 C   0  0  0  0  0  0  0  0  0  0  0  0
  -26.3052   -3.0747    0.0000 C   0  0  0  0  0  0  0  0  0  0  0  0
  -27.1651   -4.3037    0.0000 C   0  0  0  0  0  0  0  0  0  0  0  0
  -28.6595   -4.1734    0.0000 N   0  0  0  0  0  0  0  0  0  0  0  0
  -22.9524   -0.6905    0.0000 C   0  0  0  0  0  0  0  0  0  0  0  0
  -24.4262   -0.9699    0.0000 O   0  0  0  0  0  0  0  0  0  0  0  0
  -23.0090    0.8084    0.0000 N   0  0  0  0  0  0  0  0  0  0  0  0
  -22.6212    2.2574    0.0000 C   0  0  0  0  0  0  0  0  0  0  0  0
  -21.8236    3.5278    0.0000 C   0  0  0  0  0  0  0  0  0  0  0  0
  -20.6869    4.5066    0.0000 C   0  0  0  0  0  0  0  0  0  0  0  0
  -19.3123    5.1068    0.0000 C   0  0  0  0  0  0  0  0  0  0  0  0
  -17.8217    5.2753    0.0000 C   0  0  0  0  0  0  0  0  0  0  0  0
  -24.1015    2.0149    0.0000 C   0  0  0  0  0  0  0  0  0  0  0  0
  -23.4511    3.5070    0.0000 C   0  0  0  0  0  0  0  0  0  0  0  0
  -23.1288    4.9719    0.0000 O   0  0  0  0  0  0  0  0  0  0  0  0
  -24.9481    3.4130    0.0000 N   0  0  0  0  0  0  0  0  0  0  0  0
  -25.7780    4.6626    0.0000 C   0  0  0  0  0  0  0  0  0  0  0  0
  -26.1304    6.1206    0.0000 C   0  0  0  0  0  0  0  0  0  0  0  0
  -25.0440    7.1548    0.0000 C   0  0  0  0  0  0  0  0  0  0  0  0
  -25.3964    8.6128    0.0000 C   0  0  0  0  0  0  0  0  0  0  0  0
  -23.6693    7.7551    0.0000 C   0  0  0  0  0  0  0  0  0  0  0  0
  -27.2750    4.5687    0.0000 C   0  0  0  0  0  0  0  0  0  0  0  0
  -28.2510    5.7077    0.0000 O   0  0  0  0  0  0  0  0  0  0  0  0
  -27.9422    3.2252    0.0000 O   0  0  0  0  0  0  0  0  0  0  0  0
   33.6174    1.3592    0.0000 H   0  0  0  0  0  0  0  0  0  0  0  0
   33.7457   -3.1315    0.0000 H   0  0  0  0  0  0  0  0  0  0  0  0
   36.3254   -4.6629    0.0000 H   0  0  0  0  0  0  0  0  0  0  0  0
   36.0348    1.2965    0.0000 H   0  0  0  0  0  0  0  0  0  0  0  0
   43.0055    2.9469    0.0000 H   0  0  0  0  0  0  0  0  0  0  0  0
   44.0240   -2.1484    0.0000 H   0  0  0  0  0  0  0  0  0  0  0  0
   41.0822   -2.7365    0.0000 H   0  0  0  0  0  0  0  0  0  0  0  0
   45.9757   -0.4335    0.0000 H   0  0  0  0  0  0  0  0  0  0  0  0
   36.1602   -1.0709    0.0000 H   0  0  0  0  0  0  0  0  0  0  0  0
   34.1552    1.3643    0.0000 H   0  0  0  0  0  0  0  0  0  0  0  0
   38.0835    4.6125    0.0000 H   0  0  0  0  0  0  0  0  0  0  0  0
   35.6225    5.4453    0.0000 H   0  0  0  0  0  0  0  0  0  0  0  0
   31.2025    1.3998    0.0000 H   0  0  0  0  0  0  0  0  0  0  0  0
   28.8982   -1.9716    0.0000 H   0  0  0  0  0  0  0  0  0  0  0  0
   30.8264   -1.9950    0.0000 H   0  0  0  0  0  0  0  0  0  0  0  0
   27.7848    1.1993    0.0000 H   0  0  0  0  0  0  0  0  0  0  0  0
   29.5645    1.0687    0.0000 H   0  0  0  0  0  0  0  0  0  0  0  0
   25.1869    1.2308    0.0000 H   0  0  0  0  0  0  0  0  0  0  0  0
   26.8207    1.2110    0.0000 H   0  0  0  0  0  0  0  0  0  0  0  0
   22.4405    1.1552    0.0000 H   0  0  0  0  0  0  0  0  0  0  0  0
   24.2228    1.2426    0.0000 H   0  0  0  0  0  0  0  0  0  0  0  0
   21.2504   -1.9876    0.0000 H   0  0  0  0  0  0  0  0  0  0  0  0
   23.0327   -1.9003    0.0000 H   0  0  0  0  0  0  0  0  0  0  0  0
   18.5066   -1.8453    0.0000 H   0  0  0  0  0  0  0  0  0  0  0  0
   20.2863   -1.9759    0.0000 H   0  0  0  0  0  0  0  0  0  0  0  0
   17.2447    1.2184    0.0000 H   0  0  0  0  0  0  0  0  0  0  0  0
   19.1729    1.1949    0.0000 H   0  0  0  0  0  0  0  0  0  0  0  0
   15.6152    1.5891    0.0000 H   0  0  0  0  0  0  0  0  0  0  0  0
   15.2391   -1.8056    0.0000 H   0  0  0  0  0  0  0  0  0  0  0  0
   12.9558   -3.2396    0.0000 H   0  0  0  0  0  0  0  0  0  0  0  0
   14.6007   -2.5479    0.0000 H   0  0  0  0  0  0  0  0  0  0  0  0
   10.6501   -0.5866    0.0000 H   0  0  0  0  0  0  0  0  0  0  0  0
   11.6461   -0.0160    0.0000 H   0  0  0  0  0  0  0  0  0  0  0  0
   10.5037   -4.0984    0.0000 H   0  0  0  0  0  0  0  0  0  0  0  0
   12.0457   -3.5583    0.0000 H   0  0  0  0  0  0  0  0  0  0  0  0
    8.0114   -1.7599    0.0000 H   0  0  0  0  0  0  0  0  0  0  0  0
    9.7400   -0.9053    0.0000 H   0  0  0  0  0  0  0  0  0  0  0  0
    6.9778   -3.0440    0.0000 H   0  0  0  0  0  0  0  0  0  0  0  0
    7.8767   -4.9032    0.0000 H   0  0  0  0  0  0  0  0  0  0  0  0
    9.5937   -4.4172    0.0000 H   0  0  0  0  0  0  0  0  0  0  0  0
   11.3104   -2.0643    0.0000 H   0  0  0  0  0  0  0  0  0  0  0  0
   11.5106    1.1619    0.0000 H   0  0  0  0  0  0  0  0  0  0  0  0
    8.2642    2.2303    0.0000 H   0  0  0  0  0  0  0  0  0  0  0  0
    8.2269    0.4462    0.0000 H   0  0  0  0  0  0  0  0  0  0  0  0
   10.9593    3.8535    0.0000 H   0  0  0  0  0  0  0  0  0  0  0  0
   11.3547    2.1134    0.0000 H   0  0  0  0  0  0  0  0  0  0  0  0
    8.6110    6.4408    0.0000 H   0  0  0  0  0  0  0  0  0  0  0  0
   11.0414    5.5226    0.0000 H   0  0  0  0  0  0  0  0  0  0  0  0
    7.6386    1.6748    0.0000 H   0  0  0  0  0  0  0  0  0  0  0  0
    7.2969   -1.8181    0.0000 H   0  0  0  0  0  0  0  0  0  0  0  0
    4.9871   -3.0907    0.0000 H   0  0  0  0  0  0  0  0  0  0  0  0
    6.8908   -2.2903    0.0000 H   0  0  0  0  0  0  0  0  0  0  0  0
    3.5168   -1.9696    0.0000 H   0  0  0  0  0  0  0  0  0  0  0  0
    3.7170    1.2566    0.0000 H   0  0  0  0  0  0  0  0  0  0  0  0
    0.3676    2.1734    0.0000 H   0  0  0  0  0  0  0  0  0  0  0  0
    0.4332    0.5409    0.0000 H   0  0  0  0  0  0  0  0  0  0  0  0
    3.1656    3.9482    0.0000 H   0  0  0  0  0  0  0  0  0  0  0  0
    3.5611    2.2081    0.0000 H   0  0  0  0  0  0  0  0  0  0  0  0
   -0.0525    4.7373    0.0000 H   0  0  0  0  0  0  0  0  0  0  0  0
    0.1280    2.9620    0.0000 H   0  0  0  0  0  0  0  0  0  0  0  0
    3.2478    5.6173    0.0000 H   0  0  0  0  0  0  0  0  0  0  0  0
    0.3973    9.0994    0.0000 H   0  0  0  0  0  0  0  0  0  0  0  0
    2.8277    8.1812    0.0000 H   0  0  0  0  0  0  0  0  0  0  0  0
   -1.6131    7.4537    0.0000 H   0  0  0  0  0  0  0  0  0  0  0  0
   -1.1930    4.8898    0.0000 H   0  0  0  0  0  0  0  0  0  0  0  0
   -0.1551    1.7695    0.0000 H   0  0  0  0  0  0  0  0  0  0  0  0
   -0.3482   -1.6163    0.0000 H   0  0  0  0  0  0  0  0  0  0  0  0
   -2.6316   -3.0502    0.0000 H   0  0  0  0  0  0  0  0  0  0  0  0
   -0.9866   -2.3586    0.0000 H   0  0  0  0  0  0  0  0  0  0  0  0
   -4.9373   -0.3972    0.0000 H   0  0  0  0  0  0  0  0  0  0  0  0
   -3.9412    0.1733    0.0000 H   0  0  0  0  0  0  0  0  0  0  0  0
   -5.0836   -3.9091    0.0000 H   0  0  0  0  0  0  0  0  0  0  0  0
   -3.5416   -3.3690    0.0000 H   0  0  0  0  0  0  0  0  0  0  0  0
   -7.5759   -1.5706    0.0000 H   0  0  0  0  0  0  0  0  0  0  0  0
   -5.8473   -0.7160    0.0000 H   0  0  0  0  0  0  0  0  0  0  0  0
   -8.6095   -2.8546    0.0000 H   0  0  0  0  0  0  0  0  0  0  0  0
   -7.7106   -4.7138    0.0000 H   0  0  0  0  0  0  0  0  0  0  0  0
   -5.9936   -4.2279    0.0000 H   0  0  0  0  0  0  0  0  0  0  0  0
   -4.2769   -1.8749    0.0000 H   0  0  0  0  0  0  0  0  0  0  0  0
   -4.0767    1.3513    0.0000 H   0  0  0  0  0  0  0  0  0  0  0  0
   -7.4261    2.2681    0.0000 H   0  0  0  0  0  0  0  0  0  0  0  0
   -7.3604    0.6356    0.0000 H   0  0  0  0  0  0  0  0  0  0  0  0
   -4.4967    3.9151    0.0000 H   0  0  0  0  0  0  0  0  0  0  0  0
   -4.2326    2.3028    0.0000 H   0  0  0  0  0  0  0  0  0  0  0  0
   -7.9298    4.6691    0.0000 H   0  0  0  0  0  0  0  0  0  0  0  0
   -7.6657    3.0567    0.0000 H   0  0  0  0  0  0  0  0  0  0  0  0
   -5.0481    6.6067    0.0000 H   0  0  0  0  0  0  0  0  0  0  0  0
   -4.6526    4.8667    0.0000 H   0  0  0  0  0  0  0  0  0  0  0  0
   -6.4462    8.0334    0.0000 H   0  0  0  0  0  0  0  0  0  0  0  0
   -8.2661    7.3959    0.0000 H   0  0  0  0  0  0  0  0  0  0  0  0
   -8.0857    5.6206    0.0000 H   0  0  0  0  0  0  0  0  0  0  0  0
   -7.9487    1.8642    0.0000 H   0  0  0  0  0  0  0  0  0  0  0  0
   -8.2904   -1.6288    0.0000 H   0  0  0  0  0  0  0  0  0  0  0  0
  -10.6002   -2.9014    0.0000 H   0  0  0  0  0  0  0  0  0  0  0  0
   -8.6965   -2.1010    0.0000 H   0  0  0  0  0  0  0  0  0  0  0  0
  -12.4642   -2.4783    0.0000 H   0  0  0  0  0  0  0  0  0  0  0  0
  -11.7081   -1.8293    0.0000 H   0  0  0  0  0  0  0  0  0  0  0  0
  -11.7689    1.7390    0.0000 H   0  0  0  0  0  0  0  0  0  0  0  0
  -12.3389    3.0947    0.0000 H   0  0  0  0  0  0  0  0  0  0  0  0
  -12.5306    3.6894    0.0000 H   0  0  0  0  0  0  0  0  0  0  0  0
  -13.2632    4.5642    0.0000 H   0  0  0  0  0  0  0  0  0  0  0  0
  -13.6937    4.9944    0.0000 H   0  0  0  0  0  0  0  0  0  0  0  0
  -14.9284    5.7935    0.0000 H   0  0  0  0  0  0  0  0  0  0  0  0
  -15.8528    6.4129    0.0000 H   0  0  0  0  0  0  0  0  0  0  0  0
  -11.4764    2.7972    0.0000 H   0  0  0  0  0  0  0  0  0  0  0  0
  -10.3790    1.8467    0.0000 H   0  0  0  0  0  0  0  0  0  0  0  0
  -10.8418    0.1039    0.0000 H   0  0  0  0  0  0  0  0  0  0  0  0
  -12.4763   -3.2269    0.0000 H   0  0  0  0  0  0  0  0  0  0  0  0
  -13.2858   -3.9903    0.0000 H   0  0  0  0  0  0  0  0  0  0  0  0
  -14.8342   -6.5190    0.0000 H   0  0  0  0  0  0  0  0  0  0  0  0
  -15.9870   -5.3612    0.0000 H   0  0  0  0  0  0  0  0  0  0  0  0
  -14.1081   -8.0241    0.0000 H   0  0  0  0  0  0  0  0  0  0  0  0
  -11.3290   -9.1540    0.0000 H   0  0  0  0  0  0  0  0  0  0  0  0
   -8.9609   -7.3121    0.0000 H   0  0  0  0  0  0  0  0  0  0  0  0
   -9.3720   -4.3404    0.0000 H   0  0  0  0  0  0  0  0  0  0  0  0
  -11.9685   -3.1966    0.0000 H   0  0  0  0  0  0  0  0  0  0  0  0
  -17.0944   -6.2126    0.0000 H   0  0  0  0  0  0  0  0  0  0  0  0
  -18.3764   -6.0873    0.0000 H   0  0  0  0  0  0  0  0  0  0  0  0
  -21.3188   -6.4533    0.0000 H   0  0  0  0  0  0  0  0  0  0  0  0
  -21.1324   -4.8301    0.0000 H   0  0  0  0  0  0  0  0  0  0  0  0
  -22.0429   -7.9594    0.0000 H   0  0  0  0  0  0  0  0  0  0  0  0
  -21.1935  -10.8367    0.0000 H   0  0  0  0  0  0  0  0  0  0  0  0
  -18.2770  -11.5397    0.0000 H   0  0  0  0  0  0  0  0  0  0  0  0
  -16.2099   -9.3655    0.0000 H   0  0  0  0  0  0  0  0  0  0  0  0
  -16.9345   -6.6223    0.0000 H   0  0  0  0  0  0  0  0  0  0  0  0
  -22.6257   -4.3738    0.0000 H   0  0  0  0  0  0  0  0  0  0  0  0
  -23.0249   -3.4943    0.0000 H   0  0  0  0  0  0  0  0  0  0  0  0
  -25.2232   -1.1814    0.0000 H   0  0  0  0  0  0  0  0  0  0  0  0
  -23.9252   -0.4761    0.0000 H   0  0  0  0  0  0  0  0  0  0  0  0
  -25.0191   -4.6904    0.0000 H   0  0  0  0  0  0  0  0  0  0  0  0
  -23.5385   -3.9994    0.0000 H   0  0  0  0  0  0  0  0  0  0  0  0
  -27.5775   -2.2802    0.0000 H   0  0  0  0  0  0  0  0  0  0  0  0
  -26.0969   -1.5892    0.0000 H   0  0  0  0  0  0  0  0  0  0  0  0
  -27.5529   -5.7527    0.0000 H   0  0  0  0  0  0  0  0  0  0  0  0
  -25.8928   -5.0982    0.0000 H   0  0  0  0  0  0  0  0  0  0  0  0
  -29.5194   -5.4024    0.0000 H   0  0  0  0  0  0  0  0  0  0  0  0
  -30.0191   -3.5399    0.0000 H   0  0  0  0  0  0  0  0  0  0  0  0
  -28.4512   -2.6879    0.0000 H   0  0  0  0  0  0  0  0  0  0  0  0
  -24.4996    0.9759    0.0000 H   0  0  0  0  0  0  0  0  0  0  0  0
  -22.2482    4.9664    0.0000 H   0  0  0  0  0  0  0  0  0  0  0  0
  -23.2159    4.0858    0.0000 H   0  0  0  0  0  0  0  0  0  0  0  0
  -20.8517    5.9975    0.0000 H   0  0  0  0  0  0  0  0  0  0  0  0
  -21.8529    5.4502    0.0000 H   0  0  0  0  0  0  0  0  0  0  0  0
  -18.8527    6.5347    0.0000 H   0  0  0  0  0  0  0  0  0  0  0  0
  -20.2938    6.2411    0.0000 H   0  0  0  0  0  0  0  0  0  0  0  0
  -17.7661    6.7742    0.0000 H   0  0  0  0  0  0  0  0  0  0  0  0
  -25.3042    2.9112    0.0000 H   0  0  0  0  0  0  0  0  0  0  0  0
  -25.3103    1.1268    0.0000 H   0  0  0  0  0  0  0  0  0  0  0  0
  -23.9629    0.5213    0.0000 H   0  0  0  0  0  0  0  0  0  0  0  0
  -25.7741    2.1609    0.0000 H   0  0  0  0  0  0  0  0  0  0  0  0
  -24.3404    5.0908    0.0000 H   0  0  0  0  0  0  0  0  0  0  0  0
  -27.1064    7.2596    0.0000 H   0  0  0  0  0  0  0  0  0  0  0  0
  -27.5680    5.6923    0.0000 H   0  0  0  0  0  0  0  0  0  0  0  0
  -24.0680    6.0158    0.0000 H   0  0  0  0  0  0  0  0  0  0  0  0
  -24.4442    9.7718    0.0000 H   0  0  0  0  0  0  0  0  0  0  0  0
  -26.2263    9.8623    0.0000 H   0  0  0  0  0  0  0  0  0  0  0  0
  -26.8340    8.1846    0.0000 H   0  0  0  0  0  0  0  0  0  0  0  0
  -23.3214    9.2142    0.0000 H   0  0  0  0  0  0  0  0  0  0  0  0
  -22.1723    7.8490    0.0000 H   0  0  0  0  0  0  0  0  0  0  0  0
  -23.3169    6.2971    0.0000 H   0  0  0  0  0  0  0  0  0  0  0  0
  1  2  1  0
  2  3  1  0
  3  4  2  0
  4  5  1  0
  5  6  2  0
  6  7  1  0
  7  8  2  0
  7  9  1  0
  9 10  1  0
 10 11  1  0
 11 12  2  0
  9 13  1  0
 13 14  1  0
 14 15  2  0
 15 16  1  0
 16 17  2  0
 17 18  1  0
 16 19  1  0
 14 20  1  0
 20 21  1  0
 21 22  2  0
 22 23  1  0
 23 24  2  0
 24 25  1  0
 25 26  2  0
 25 27  1  0
  1 28  2  0
  1 29  1  0
 29 30  1  0
 30 31  1  0
 31 32  1  0
 32 33  1  0
 33 34  1  0
 34 35  1  0
 35 36  1  0
 36 37  1  0
 37 38  1  0
 38 39  1  0
 39 40  1  0
 40 41  2  0
 40 42  1  0
 42 43  1  0
 43 44  1  0
 44 45  1  0
 45 46  1  0
 46 47  1  0
 47 48  1  0
 43 49  1  0
 49 50  2  0
 49 51  1  0
 51 52  1  0
 52 53  1  0
 53 54  1  0
 54 55  1  0
 55 56  1  0
 55 57  2  0
 52 58  1  0
 58 59  2  0
 58 60  1  0
 60 61  1  0
 61 62  1  0
 62 63  1  0
 63 64  2  0
 64 65  1  0
 64 66  1  0
 66 67  1  0
 66 68  2  0
 68 69  1  0
 68 70  1  0
 70 71  1  0
 70 72  2  0
 72 73  1  0
 61 74  1  0
 74 75  2  0
 74 76  1  0
 76 77  1  0
 77 78  1  0
 78 79  1  0
 79 80  1  0
 80 81  1  0
 81 82  1  0
 82 83  2  3
 82 84  1  0
 77 85  1  0
 85 86  2  0
 85 87  1  0
 87 88  1  0
 88 89  1  0
 89 90  1  0
 90 91  1  0
 91 92  1  0
 92 93  1  0
 88 94  1  0
 94 95  2  0
 94 96  1  0
 96 97  1  0
 97 98  1  0
 98 99  1  0
 99100  1  0
100101  1  0
101102  1  0
 97103  1  0
103104  2  0
103105  1  0
105106  1  0
106107  1  0
107108  1  0
106109  1  0
109110  2  0
109111  1  0
112111  1  6
112113  1  0
113114  1  0
114115  1  0
115116  1  0
112117  1  0
112118  1  0
118119  2  0
118120  1  0
120121  1  0
121122  1  0
122123  1  0
123124  2  0
124125  1  0
125126  2  0
126127  1  0
127128  2  0
121129  1  0
129130  2  0
129131  1  0
131132  1  0
132133  1  0
133134  1  0
134135  2  0
135136  1  0
136137  2  0
137138  1  0
138139  2  0
132140  1  0
140141  2  0
140142  1  0
142143  1  0
143144  1  0
144145  1  0
145146  1  0
146147  1  0
147148  1  0
143149  1  0
149150  2  0
149151  1  0
151152  1  0
152153  1  0
153154  1  0
154155  1  0
155156  1  0
152157  1  0
152158  1  6
158159  2  0
158160  1  0
160161  1  0
161162  1  0
162163  1  0
163164  1  0
163165  1  0
161166  1  0
166167  2  0
166168  1  0
  8  3  1  0
 72 63  1  0
128123  1  0
139134  1  0
 11  6  1  0
116156  2  0
 18 13  2  0
 22  9  1  0
 26 21  1  0
  2169  1  0
  4170  1  0
  5171  1  0
  8172  1  0
 15173  1  0
 17174  1  0
 18175  1  0
 19176  1  0
 23177  1  0
 24178  1  0
 26179  1  0
 27180  1  0
 29181  1  0
 30182  1  0
 30183  1  0
 31184  1  0
 31185  1  0
 33186  1  0
 33187  1  0
 35188  1  0
 35189  1  0
 36190  1  0
 36191  1  0
 38192  1  0
 38193  1  0
 39194  1  0
 39195  1  0
 42196  1  0
 43197  1  1
 44198  1  0
 44199  1  0
 45200  1  0
 45201  1  0
 46202  1  0
 46203  1  0
 47204  1  0
 47205  1  0
 48206  1  0
 48207  1  0
 48208  1  0
 51209  1  0
 52210  1  6
 53211  1  0
 53212  1  0
 54213  1  0
 54214  1  0
 56215  1  0
 56216  1  0
 60217  1  0
 61218  1  6
 62219  1  0
 62220  1  0
 76221  1  0
 77222  1  6
 78223  1  0
 78224  1  0
 79225  1  0
 79226  1  0
 80227  1  0
 80228  1  0
 81229  1  0
 83230  1  0
 83231  1  0
 84232  1  0
 84233  1  0
 87234  1  0
 88235  1  1
 89236  1  0
 89237  1  0
 90238  1  0
 90239  1  0
 91240  1  0
 91241  1  0
 92242  1  0
 92243  1  0
 93244  1  0
 93245  1  0
 93246  1  0
 96247  1  0
 97248  1  6
 98249  1  0
 98250  1  0
 99251  1  0
 99252  1  0
100253  1  0
100254  1  0
101255  1  0
101256  1  0
102257  1  0
102258  1  0
102259  1  0
105260  1  0
106261  1  1
107262  1  0
107263  1  0
108264  1  0
111265  1  0
113266  1  0
113267  1  0
114268  1  0
114269  1  0
115270  1  0
115271  1  0
116272  1  0
117273  1  0
117274  1  0
117275  1  0
120276  1  0
121277  1  1
122278  1  0
122279  1  0
124280  1  0
125281  1  0
126282  1  0
127283  1  0
128284  1  0
131285  1  0
132286  1  1
133287  1  0
133288  1  0
135289  1  0
136290  1  0
137291  1  0
138292  1  0
139293  1  0
142294  1  0
143295  1  1
144296  1  0
144297  1  0
145298  1  0
145299  1  0
146300  1  0
146301  1  0
147302  1  0
147303  1  0
148304  1  0
148305  1  0
148306  1  0
151307  1  0
153308  1  0
153309  1  0
154310  1  0
154311  1  0
155312  1  0
155313  1  0
156314  1  0
157315  1  0
157316  1  0
157317  1  0
160318  1  0
161319  1  6
162320  1  0
162321  1  0
163322  1  0
164323  1  0
164324  1  0
164325  1  0
165326  1  0
165327  1  0
165328  1  0
M  CHG  6  48   1  83   1  93   1 102   1 148   1 168  -1
M  END
