
     RDKit          2D

322330  0  0  0  0  0  0  0  0999 V2000
  -29.7273   -0.6485    0.0000 C   0  0  0  0  0  0  0  0  0  0  0  0
  -30.9712   -1.4868    0.0000 N   0  0  0  0  0  0  0  0  0  0  0  0
  -32.3191   -0.8286    0.0000 C   0  0  0  0  0  0  0  0  0  0  0  0
  -32.4231    0.6678    0.0000 C   0  0  0  0  0  0  0  0  0  0  0  0
  -33.7710    1.3259    0.0000 C   0  0  0  0  0  0  0  0  0  0  0  0
  -35.0149    0.4876    0.0000 C   0  0  0  0  0  0  0  0  0  0  0  0
  -34.9109   -1.0088    0.0000 C   0  0  0  0  0  0  0  0  0  0  0  0
  -33.5630   -1.6669    0.0000 C   0  0  0  0  0  0  0  0  0  0  0  0
  -36.3019   -1.5701    0.0000 C   0  0  0  0  0  0  0  0  0  0  0  0
  -37.2656   -0.4206    0.0000 O   0  0  0  0  0  0  0  0  0  0  0  0
  -36.4702    0.8511    0.0000 C   0  0  0  0  0  0  0  0  0  0  0  0
  -37.0315    2.2421    0.0000 O   0  0  0  0  0  0  0  0  0  0  0  0
  -37.7440   -1.9830    0.0000 C   0  0  0  0  0  0  0  0  0  0  0  0
  -38.1075   -3.4382    0.0000 C   0  0  0  0  0  0  0  0  0  0  0  0
  -39.5495   -3.8511    0.0000 C   0  0  0  0  0  0  0  0  0  0  0  0
  -40.6281   -2.8087    0.0000 C   0  0  0  0  0  0  0  0  0  0  0  0
  -40.2646   -1.3534    0.0000 C   0  0  0  0  0  0  0  0  0  0  0  0
  -38.8226   -0.9405    0.0000 C   0  0  0  0  0  0  0  0  0  0  0  0
  -42.0702   -3.2215    0.0000 O   0  0  0  0  0  0  0  0  0  0  0  0
  -37.0289   -4.4807    0.0000 O   0  0  0  0  0  0  0  0  0  0  0  0
  -35.5868   -4.0678    0.0000 C   0  0  0  0  0  0  0  0  0  0  0  0
  -35.2233   -2.6125    0.0000 C   0  0  0  0  0  0  0  0  0  0  0  0
  -33.9509   -2.8788    0.0000 C   0  0  0  0  0  0  0  0  0  0  0  0
  -33.3757   -3.4348    0.0000 C   0  0  0  0  0  0  0  0  0  0  0  0
  -33.5695   -4.2110    0.0000 C   0  0  0  0  0  0  0  0  0  0  0  0
  -34.3386   -4.4311    0.0000 C   0  0  0  0  0  0  0  0  0  0  0  0
  -31.9876   -5.7399    0.0000 O   0  0  0  0  0  0  0  0  0  0  0  0
  -29.8313    0.8479    0.0000 S   0  0  0  0  0  0  0  0  0  0  0  0
  -28.3793   -1.3066    0.0000 N   0  0  0  0  0  0  0  0  0  0  0  0
  -27.1354   -0.4683    0.0000 C   0  0  0  0  0  0  0  0  0  0  0  0
  -25.7875   -1.1265    0.0000 C   0  0  0  0  0  0  0  0  0  0  0  0
  -24.5436   -0.2882    0.0000 C   0  0  0  0  0  0  0  0  0  0  0  0
  -24.6476    1.2082    0.0000 O   0  0  0  0  0  0  0  0  0  0  0  0
  -23.1957   -0.9463    0.0000 N   0  0  0  0  0  0  0  0  0  0  0  0
  -21.9518   -0.1080    0.0000 C   0  0  0  0  0  0  0  0  0  0  0  0
  -21.0696    1.1051    0.0000 C   0  0  0  0  0  0  0  0  0  0  0  0
  -19.6206    1.4929    0.0000 O   0  0  0  0  0  0  0  0  0  0  0  0
  -20.6039   -0.7662    0.0000 C   0  0  0  0  0  0  0  0  0  0  0  0
  -20.6831   -2.2641    0.0000 O   0  0  0  0  0  0  0  0  0  0  0  0
  -19.3600    0.0721    0.0000 N   0  0  0  0  0  0  0  0  0  0  0  0
  -18.0121   -0.5860    0.0000 C   0  0  0  0  0  0  0  0  0  0  0  0
  -16.9705   -1.6655    0.0000 C   0  0  0  0  0  0  0  0  0  0  0  0
  -17.3846   -3.1072    0.0000 C   0  0  0  0  0  0  0  0  0  0  0  0
  -18.8402   -3.4695    0.0000 C   0  0  0  0  0  0  0  0  0  0  0  0
  -19.2542   -4.9112    0.0000 C   0  0  0  0  0  0  0  0  0  0  0  0
  -18.2127   -5.9906    0.0000 C   0  0  0  0  0  0  0  0  0  0  0  0
  -18.6268   -7.4323    0.0000 O   0  0  0  0  0  0  0  0  0  0  0  0
  -16.7571   -5.6283    0.0000 C   0  0  0  0  0  0  0  0  0  0  0  0
  -16.3430   -4.1866    0.0000 C   0  0  0  0  0  0  0  0  0  0  0  0
  -16.7681    0.2523    0.0000 C   0  0  0  0  0  0  0  0  0  0  0  0
  -16.8722    1.7486    0.0000 O   0  0  0  0  0  0  0  0  0  0  0  0
  -15.4202   -0.4059    0.0000 N   0  0  0  0  0  0  0  0  0  0  0  0
  -14.1763    0.4324    0.0000 C   0  0  0  0  0  0  0  0  0  0  0  0
  -13.2941    1.6456    0.0000 C   0  0  0  0  0  0  0  0  0  0  0  0
  -11.8024    1.4881    0.0000 C   0  0  0  0  0  0  0  0  0  0  0  0
  -10.9202    2.7013    0.0000 C   0  0  0  0  0  0  0  0  0  0  0  0
   -9.4285    2.5439    0.0000 N   0  0  0  0  0  0  0  0  0  0  0  0
   -8.5463    3.7570    0.0000 C   0  0  0  0  0  0  0  0  0  0  0  0
   -7.0849    3.4190    0.0000 N   0  0  0  0  0  0  0  0  0  0  0  0
   -9.1559    5.1276    0.0000 N   0  0  0  0  0  0  0  0  0  0  0  0
  -12.8284   -0.2257    0.0000 C   0  0  0  0  0  0  0  0  0  0  0  0
  -12.7244   -1.7221    0.0000 O   0  0  0  0  0  0  0  0  0  0  0  0
  -11.5845    0.6126    0.0000 N   0  0  0  0  0  0  0  0  0  0  0  0
  -10.2366   -0.0456    0.0000 C   0  0  0  0  0  0  0  0  0  0  0  0
   -8.9927    0.7927    0.0000 C   0  0  0  0  0  0  0  0  0  0  0  0
   -8.8023    1.8695    0.0000 O   0  0  0  0  0  0  0  0  0  0  0  0
   -7.6448    0.1346    0.0000 N   0  0  0  0  0  0  0  0  0  0  0  0
   -6.4009    0.9728    0.0000 C   0  0  0  0  0  0  0  0  0  0  0  0
   -5.5187    2.1860    0.0000 C   0  0  0  0  0  0  0  0  0  0  0  0
   -5.0529    0.3147    0.0000 C   0  0  0  0  0  0  0  0  0  0  0  0
   -5.1321   -1.1832    0.0000 O   0  0  0  0  0  0  0  0  0  0  0  0
   -3.8090    1.1530    0.0000 N   0  0  0  0  0  0  0  0  0  0  0  0
   -2.4611    0.4949    0.0000 C   0  0  0  0  0  0  0  0  0  0  0  0
   -1.4196   -0.5846    0.0000 C   0  0  0  0  0  0  0  0  0  0  0  0
   -1.8336   -2.0263    0.0000 C   0  0  0  0  0  0  0  0  0  0  0  0
   -3.2892   -2.3886    0.0000 C   0  0  0  0  0  0  0  0  0  0  0  0
   -3.7033   -3.8303    0.0000 C   0  0  0  0  0  0  0  0  0  0  0  0
   -2.6618   -4.9097    0.0000 C   0  0  0  0  0  0  0  0  0  0  0  0
   -1.2062   -4.5475    0.0000 C   0  0  0  0  0  0  0  0  0  0  0  0
   -0.7921   -3.1057    0.0000 C   0  0  0  0  0  0  0  0  0  0  0  0
   -1.2172    1.3331    0.0000 C   0  0  0  0  0  0  0  0  0  0  0  0
   -1.3212    2.8295    0.0000 O   0  0  0  0  0  0  0  0  0  0  0  0
    0.1307    0.6750    0.0000 N   0  0  0  0  0  0  0  0  0  0  0  0
    1.3746    1.5133    0.0000 C   0  0  0  0  0  0  0  0  0  0  0  0
    2.2568    2.7264    0.0000 C   0  0  0  0  0  0  0  0  0  0  0  0
    3.7485    2.5690    0.0000 C   0  0  0  0  0  0  0  0  0  0  0  0
    4.6307    3.7822    0.0000 C   0  0  0  0  0  0  0  0  0  0  0  0
    6.1162    3.9904    0.0000 N   0  0  0  0  0  0  0  0  0  0  0  0
    3.5704    4.8432    0.0000 O   0  0  0  0  0  0  0  0  0  0  0  0
    2.7225    0.8552    0.0000 C   0  0  0  0  0  0  0  0  0  0  0  0
    2.6434   -0.6427    0.0000 O   0  0  0  0  0  0  0  0  0  0  0  0
    3.9664    1.6934    0.0000 N   0  0  0  0  0  0  0  0  0  0  0  0
    5.3144    1.0353    0.0000 C   0  0  0  0  0  0  0  0  0  0  0  0
    5.7128   -0.4108    0.0000 C   0  0  0  0  0  0  0  0  0  0  0  0
    6.5198   -1.6752    0.0000 C   0  0  0  0  0  0  0  0  0  0  0  0
    7.6636   -2.6456    0.0000 C   0  0  0  0  0  0  0  0  0  0  0  0
    9.0427   -3.2357    0.0000 C   0  0  0  0  0  0  0  0  0  0  0  0
    4.0519    0.2252    0.0000 C   0  0  0  0  0  0  0  0  0  0  0  0
    5.3599    2.5346    0.0000 C   0  0  0  0  0  0  0  0  0  0  0  0
    4.6788    2.9489    0.0000 O   0  0  0  0  0  0  0  0  0  0  0  0
    5.8453    3.9539    0.0000 N   0  0  0  0  0  0  0  0  0  0  0  0
    6.7274    5.1671    0.0000 C   0  0  0  0  0  0  0  0  0  0  0  0
    6.4016    6.6312    0.0000 C   0  0  0  0  0  0  0  0  0  0  0  0
    4.9706    7.0811    0.0000 C   0  0  0  0  0  0  0  0  0  0  0  0
    4.6448    8.5453    0.0000 C   0  0  0  0  0  0  0  0  0  0  0  0
    3.4721    7.0145    0.0000 C   0  0  0  0  0  0  0  0  0  0  0  0
    7.9280    6.0663    0.0000 C   0  0  0  0  0  0  0  0  0  0  0  0
    7.2178    7.3875    0.0000 O   0  0  0  0  0  0  0  0  0  0  0  0
    9.3403    6.5717    0.0000 N   0  0  0  0  0  0  0  0  0  0  0  0
   10.8388    6.6384    0.0000 C   0  0  0  0  0  0  0  0  0  0  0  0
   11.7804    7.8061    0.0000 C   0  0  0  0  0  0  0  0  0  0  0  0
   11.2399    9.2053    0.0000 C   0  0  0  0  0  0  0  0  0  0  0  0
   12.1815   10.3730    0.0000 C   0  0  0  0  0  0  0  0  0  0  0  0
   11.6410   11.7722    0.0000 C   0  0  0  0  0  0  0  0  0  0  0  0
   10.1590   12.0038    0.0000 C   0  0  0  0  0  0  0  0  0  0  0  0
    9.2175   10.8361    0.0000 C   0  0  0  0  0  0  0  0  0  0  0  0
    9.7579    9.4369    0.0000 C   0  0  0  0  0  0  0  0  0  0  0  0
   12.2904    6.2604    0.0000 C   0  0  0  0  0  0  0  0  0  0  0  0
   12.8805    7.6394    0.0000 O   0  0  0  0  0  0  0  0  0  0  0  0
   13.5661    5.4713    0.0000 N   0  0  0  0  0  0  0  0  0  0  0  0
   14.5526    4.3413    0.0000 C   0  0  0  0  0  0  0  0  0  0  0  0
   16.0525    4.3332    0.0000 C   0  0  0  0  0  0  0  0  0  0  0  0
   16.8095    5.6282    0.0000 C   0  0  0  0  0  0  0  0  0  0  0  0
   18.3095    5.6201    0.0000 C   0  0  0  0  0  0  0  0  0  0  0  0
   19.0665    6.9150    0.0000 N   0  0  0  0  0  0  0  0  0  0  0  0
   19.0525    4.3170    0.0000 O   0  0  0  0  0  0  0  0  0  0  0  0
   15.1621    2.9707    0.0000 C   0  0  0  0  0  0  0  0  0  0  0  0
   16.6082    3.3692    0.0000 O   0  0  0  0  0  0  0  0  0  0  0  0
   15.3406    1.4814    0.0000 N   0  0  0  0  0  0  0  0  0  0  0  0
   15.0721    0.0056    0.0000 C   0  0  0  0  0  0  0  0  0  0  0  0
   14.3806   -1.3255    0.0000 C   0  0  0  0  0  0  0  0  0  0  0  0
   13.3274   -2.3936    0.0000 C   0  0  0  0  0  0  0  0  0  0  0  0
   12.0062   -3.1039    0.0000 C   0  0  0  0  0  0  0  0  0  0  0  0
   10.5344   -3.3931    0.0000 C   0  0  0  0  0  0  0  0  0  0  0  0
   16.5277    0.3679    0.0000 C   0  0  0  0  0  0  0  0  0  0  0  0
   16.0010   -1.1722    0.0000 C   0  0  0  0  0  0  0  0  0  0  0  0
   15.7991   -2.6585    0.0000 O   0  0  0  0  0  0  0  0  0  0  0  0
   17.4854   -0.9566    0.0000 N   0  0  0  0  0  0  0  0  0  0  0  0
   18.4143   -2.1344    0.0000 C   0  0  0  0  0  0  0  0  0  0  0  0
   18.8843   -3.5589    0.0000 C   0  0  0  0  0  0  0  0  0  0  0  0
   17.8857   -4.6782    0.0000 C   0  0  0  0  0  0  0  0  0  0  0  0
   19.8987   -1.9189    0.0000 C   0  0  0  0  0  0  0  0  0  0  0  0
   20.4543   -0.5255    0.0000 O   0  0  0  0  0  0  0  0  0  0  0  0
   20.8276   -3.0967    0.0000 N   0  0  0  0  0  0  0  0  0  0  0  0
   22.3120   -2.8811    0.0000 C   0  0  0  0  0  0  0  0  0  0  0  0
   23.6332   -2.1709    0.0000 C   0  0  0  0  0  0  0  0  0  0  0  0
   24.9089   -2.9599    0.0000 C   0  0  0  0  0  0  0  0  0  0  0  0
   26.2301   -2.2497    0.0000 C   0  0  0  0  0  0  0  0  0  0  0  0
   27.5058   -3.0387    0.0000 N   0  0  0  0  0  0  0  0  0  0  0  0
   28.8270   -2.3285    0.0000 C   0  0  0  0  0  0  0  0  0  0  0  0
   29.9970   -3.2672    0.0000 N   0  0  0  0  0  0  0  0  0  0  0  0
   28.8725   -0.8292    0.0000 N   0  0  0  0  0  0  0  0  0  0  0  0
   23.2409   -4.0589    0.0000 C   0  0  0  0  0  0  0  0  0  0  0  0
   22.6854   -5.4522    0.0000 O   0  0  0  0  0  0  0  0  0  0  0  0
   24.7254   -3.8434    0.0000 N   0  0  0  0  0  0  0  0  0  0  0  0
   25.6542   -5.0211    0.0000 C   0  0  0  0  0  0  0  0  0  0  0  0
   26.1243   -6.4456    0.0000 C   0  0  0  0  0  0  0  0  0  0  0  0
   25.1257   -7.5649    0.0000 C   0  0  0  0  0  0  0  0  0  0  0  0
   25.5957   -8.9893    0.0000 C   0  0  0  0  0  0  0  0  0  0  0  0
   24.5971  -10.1086    0.0000 O   0  0  0  0  0  0  0  0  0  0  0  0
   27.0644   -9.2945    0.0000 O   0  0  0  0  0  0  0  0  0  0  0  0
   27.1387   -4.8056    0.0000 C   0  0  0  0  0  0  0  0  0  0  0  0
   28.0149   -3.5881    0.0000 O   0  0  0  0  0  0  0  0  0  0  0  0
   28.0676   -5.9834    0.0000 N   0  0  0  0  0  0  0  0  0  0  0  0
   29.5520   -5.7678    0.0000 C   0  0  0  0  0  0  0  0  0  0  0  0
   30.8732   -5.0576    0.0000 C   0  0  0  0  0  0  0  0  0  0  0  0
   32.1489   -5.8467    0.0000 C   0  0  0  0  0  0  0  0  0  0  0  0
   30.4809   -6.9456    0.0000 C   0  0  0  0  0  0  0  0  0  0  0  0
   31.9805   -6.9126    0.0000 O   0  0  0  0  0  0  0  0  0  0  0  0
   29.9253   -8.3390    0.0000 O   0  0  0  0  0  0  0  0  0  0  0  0
  -30.6855   -2.9593    0.0000 H   0  0  0  0  0  0  0  0  0  0  0  0
  -31.1792    1.5060    0.0000 H   0  0  0  0  0  0  0  0  0  0  0  0
  -33.8750    2.8223    0.0000 H   0  0  0  0  0  0  0  0  0  0  0  0
  -33.1000   -3.0937    0.0000 H   0  0  0  0  0  0  0  0  0  0  0  0
  -39.9130   -5.3064    0.0000 H   0  0  0  0  0  0  0  0  0  0  0  0
  -41.3432   -0.3109    0.0000 H   0  0  0  0  0  0  0  0  0  0  0  0
  -38.4591    0.5148    0.0000 H   0  0  0  0  0  0  0  0  0  0  0  0
  -43.1488   -2.1791    0.0000 H   0  0  0  0  0  0  0  0  0  0  0  0
  -33.4178   -0.7444    0.0000 H   0  0  0  0  0  0  0  0  0  0  0  0
  -31.2211   -3.0081    0.0000 H   0  0  0  0  0  0  0  0  0  0  0  0
  -34.8718   -6.5656    0.0000 H   0  0  0  0  0  0  0  0  0  0  0  0
  -32.3511   -7.1952    0.0000 H   0  0  0  0  0  0  0  0  0  0  0  0
  -28.2753   -2.8030    0.0000 H   0  0  0  0  0  0  0  0  0  0  0  0
  -26.2533    0.7448    0.0000 H   0  0  0  0  0  0  0  0  0  0  0  0
  -28.1770    0.6111    0.0000 H   0  0  0  0  0  0  0  0  0  0  0  0
  -24.7460   -2.2059    0.0000 H   0  0  0  0  0  0  0  0  0  0  0  0
  -26.6697   -2.3396    0.0000 H   0  0  0  0  0  0  0  0  0  0  0  0
  -23.0917   -2.4427    0.0000 H   0  0  0  0  0  0  0  0  0  0  0  0
  -22.9933    0.9714    0.0000 H   0  0  0  0  0  0  0  0  0  0  0  0
  -20.6555    2.5468    0.0000 H   0  0  0  0  0  0  0  0  0  0  0  0
  -22.4175    1.7632    0.0000 H   0  0  0  0  0  0  0  0  0  0  0  0
  -18.6957    2.1609    0.0000 H   0  0  0  0  0  0  0  0  0  0  0  0
  -19.2808    1.5700    0.0000 H   0  0  0  0  0  0  0  0  0  0  0  0
  -18.8942   -1.7992    0.0000 H   0  0  0  0  0  0  0  0  0  0  0  0
  -15.7129   -2.4830    0.0000 H   0  0  0  0  0  0  0  0  0  0  0  0
  -15.8210   -0.7018    0.0000 H   0  0  0  0  0  0  0  0  0  0  0  0
  -20.0055   -2.5250    0.0000 H   0  0  0  0  0  0  0  0  0  0  0  0
  -20.7098   -5.2734    0.0000 H   0  0  0  0  0  0  0  0  0  0  0  0
  -17.5852   -8.5118    0.0000 H   0  0  0  0  0  0  0  0  0  0  0  0
  -15.7156   -6.7078    0.0000 H   0  0  0  0  0  0  0  0  0  0  0  0
  -14.8874   -3.8243    0.0000 H   0  0  0  0  0  0  0  0  0  0  0  0
  -15.1346   -1.8784    0.0000 H   0  0  0  0  0  0  0  0  0  0  0  0
  -15.2179    1.5119    0.0000 H   0  0  0  0  0  0  0  0  0  0  0  0
  -13.0589    3.1270    0.0000 H   0  0  0  0  0  0  0  0  0  0  0  0
  -14.6421    2.3037    0.0000 H   0  0  0  0  0  0  0  0  0  0  0  0
  -10.4545    0.8300    0.0000 H   0  0  0  0  0  0  0  0  0  0  0  0
  -11.4910    0.0208    0.0000 H   0  0  0  0  0  0  0  0  0  0  0  0
  -10.5062    4.1430    0.0000 H   0  0  0  0  0  0  0  0  0  0  0  0
  -12.1779    3.5188    0.0000 H   0  0  0  0  0  0  0  0  0  0  0  0
   -8.5055    1.3615    0.0000 H   0  0  0  0  0  0  0  0  0  0  0  0
   -6.1724    4.8128    0.0000 H   0  0  0  0  0  0  0  0  0  0  0  0
   -6.5949    2.1599    0.0000 H   0  0  0  0  0  0  0  0  0  0  0  0
   -8.2737    6.3408    0.0000 H   0  0  0  0  0  0  0  0  0  0  0  0
  -10.6476    5.2850    0.0000 H   0  0  0  0  0  0  0  0  0  0  0  0
  -11.3233    2.0896    0.0000 H   0  0  0  0  0  0  0  0  0  0  0  0
   -9.1951   -1.1250    0.0000 H   0  0  0  0  0  0  0  0  0  0  0  0
  -11.1188   -1.2587    0.0000 H   0  0  0  0  0  0  0  0  0  0  0  0
   -7.5408   -1.3618    0.0000 H   0  0  0  0  0  0  0  0  0  0  0  0
   -7.4424    2.0523    0.0000 H   0  0  0  0  0  0  0  0  0  0  0  0
   -4.0697    2.5737    0.0000 H   0  0  0  0  0  0  0  0  0  0  0  0
   -5.1046    3.6277    0.0000 H   0  0  0  0  0  0  0  0  0  0  0  0
   -6.9858    2.4984    0.0000 H   0  0  0  0  0  0  0  0  0  0  0  0
   -3.7299    2.6509    0.0000 H   0  0  0  0  0  0  0  0  0  0  0  0
   -3.3433   -0.7183    0.0000 H   0  0  0  0  0  0  0  0  0  0  0  0
   -0.1619   -1.4021    0.0000 H   0  0  0  0  0  0  0  0  0  0  0  0
   -0.2701    0.3791    0.0000 H   0  0  0  0  0  0  0  0  0  0  0  0
   -4.4546   -1.4441    0.0000 H   0  0  0  0  0  0  0  0  0  0  0  0
   -5.1589   -4.1926    0.0000 H   0  0  0  0  0  0  0  0  0  0  0  0
   -3.0758   -6.3514    0.0000 H   0  0  0  0  0  0  0  0  0  0  0  0
   -0.1646   -5.6269    0.0000 H   0  0  0  0  0  0  0  0  0  0  0  0
    0.6635   -2.7435    0.0000 H   0  0  0  0  0  0  0  0  0  0  0  0
    0.4163   -0.7975    0.0000 H   0  0  0  0  0  0  0  0  0  0  0  0
    0.3331    2.5927    0.0000 H   0  0  0  0  0  0  0  0  0  0  0  0
    2.6709    4.1682    0.0000 H   0  0  0  0  0  0  0  0  0  0  0  0
    0.9089    3.3846    0.0000 H   0  0  0  0  0  0  0  0  0  0  0  0
    5.2156    2.2566    0.0000 H   0  0  0  0  0  0  0  0  0  0  0  0
    3.8787    1.0747    0.0000 H   0  0  0  0  0  0  0  0  0  0  0  0
    7.1833    4.5978    0.0000 H   0  0  0  0  0  0  0  0  0  0  0  0
    6.7319    2.2542    0.0000 H   0  0  0  0  0  0  0  0  0  0  0  0
    4.0456    3.1913    0.0000 H   0  0  0  0  0  0  0  0  0  0  0  0
    4.2136   -0.3616    0.0000 H   0  0  0  0  0  0  0  0  0  0  0  0
    4.8922   -1.6664    0.0000 H   0  0  0  0  0  0  0  0  0  0  0  0
    5.1316   -2.2435    0.0000 H   0  0  0  0  0  0  0  0  0  0  0  0
    5.9331   -3.0557    0.0000 H   0  0  0  0  0  0  0  0  0  0  0  0
    6.3972   -3.4495    0.0000 H   0  0  0  0  0  0  0  0  0  0  0  0
    7.6929   -4.1453    0.0000 H   0  0  0  0  0  0  0  0  0  0  0  0
    8.6647   -4.6873    0.0000 H   0  0  0  0  0  0  0  0  0  0  0  0
    4.0083   -1.4402    0.0000 H   0  0  0  0  0  0  0  0  0  0  0  0
    2.8372   -0.5821    0.0000 H   0  0  0  0  0  0  0  0  0  0  0  0
    3.0452    1.0761    0.0000 H   0  0  0  0  0  0  0  0  0  0  0  0
    4.6084    4.8025    0.0000 H   0  0  0  0  0  0  0  0  0  0  0  0
    5.2326    5.2909    0.0000 H   0  0  0  0  0  0  0  0  0  0  0  0
    6.7760    8.0838    0.0000 H   0  0  0  0  0  0  0  0  0  0  0  0
    7.8394    7.0585    0.0000 H   0  0  0  0  0  0  0  0  0  0  0  0
    4.4220    5.6851    0.0000 H   0  0  0  0  0  0  0  0  0  0  0  0
    3.2793    9.1662    0.0000 H   0  0  0  0  0  0  0  0  0  0  0  0
    4.8393   10.0326    0.0000 H   0  0  0  0  0  0  0  0  0  0  0  0
    6.1240    8.7941    0.0000 H   0  0  0  0  0  0  0  0  0  0  0  0
    2.5170    8.1711    0.0000 H   0  0  0  0  0  0  0  0  0  0  0  0
    2.0868    6.4393    0.0000 H   0  0  0  0  0  0  0  0  0  0  0  0
    3.6171    5.5215    0.0000 H   0  0  0  0  0  0  0  0  0  0  0  0
    8.8738    7.9973    0.0000 H   0  0  0  0  0  0  0  0  0  0  0  0
   10.1617    7.9769    0.0000 H   0  0  0  0  0  0  0  0  0  0  0  0
   13.0645    8.5813    0.0000 H   0  0  0  0  0  0  0  0  0  0  0  0
   13.0109    6.9483    0.0000 H   0  0  0  0  0  0  0  0  0  0  0  0
   13.6635   10.1414    0.0000 H   0  0  0  0  0  0  0  0  0  0  0  0
   12.5826   12.9399    0.0000 H   0  0  0  0  0  0  0  0  0  0  0  0
    9.6186   13.4031    0.0000 H   0  0  0  0  0  0  0  0  0  0  0  0
    7.7354   11.0677    0.0000 H   0  0  0  0  0  0  0  0  0  0  0  0
    8.6810    8.3927    0.0000 H   0  0  0  0  0  0  0  0  0  0  0  0
   14.5365    6.6152    0.0000 H   0  0  0  0  0  0  0  0  0  0  0  0
   15.0060    5.7711    0.0000 H   0  0  0  0  0  0  0  0  0  0  0  0
   17.4593    3.8126    0.0000 H   0  0  0  0  0  0  0  0  0  0  0  0
   16.1492    2.8363    0.0000 H   0  0  0  0  0  0  0  0  0  0  0  0
   17.0780    7.1040    0.0000 H   0  0  0  0  0  0  0  0  0  0  0  0
   15.4767    6.3164    0.0000 H   0  0  0  0  0  0  0  0  0  0  0  0
   20.5665    6.9069    0.0000 H   0  0  0  0  0  0  0  0  0  0  0  0
   18.3236    8.2181    0.0000 H   0  0  0  0  0  0  0  0  0  0  0  0
   16.8399    1.4359    0.0000 H   0  0  0  0  0  0  0  0  0  0  0  0
   14.9210   -2.7247    0.0000 H   0  0  0  0  0  0  0  0  0  0  0  0
   15.8137   -1.7683    0.0000 H   0  0  0  0  0  0  0  0  0  0  0  0
   13.6131   -3.8662    0.0000 H   0  0  0  0  0  0  0  0  0  0  0  0
   14.5664   -3.2392    0.0000 H   0  0  0  0  0  0  0  0  0  0  0  0
   11.6646   -4.5644    0.0000 H   0  0  0  0  0  0  0  0  0  0  0  0
   13.0770   -4.1544    0.0000 H   0  0  0  0  0  0  0  0  0  0  0  0
   10.6011   -4.8916    0.0000 H   0  0  0  0  0  0  0  0  0  0  0  0
   17.7995   -0.4275    0.0000 H   0  0  0  0  0  0  0  0  0  0  0  0
   17.6601    1.3515    0.0000 H   0  0  0  0  0  0  0  0  0  0  0  0
   16.2679    1.8452    0.0000 H   0  0  0  0  0  0  0  0  0  0  0  0
   18.2067    0.3586    0.0000 H   0  0  0  0  0  0  0  0  0  0  0  0
   17.0164   -2.6783    0.0000 H   0  0  0  0  0  0  0  0  0  0  0  0
   19.6627   -4.8411    0.0000 H   0  0  0  0  0  0  0  0  0  0  0  0
   20.3381   -3.1894    0.0000 H   0  0  0  0  0  0  0  0  0  0  0  0
   18.3558   -6.1026    0.0000 H   0  0  0  0  0  0  0  0  0  0  0  0
   16.5645   -5.3884    0.0000 H   0  0  0  0  0  0  0  0  0  0  0  0
   16.8202   -3.6224    0.0000 H   0  0  0  0  0  0  0  0  0  0  0  0
   20.4460   -4.5473    0.0000 H   0  0  0  0  0  0  0  0  0  0  0  0
   21.8420   -1.4567    0.0000 H   0  0  0  0  0  0  0  0  0  0  0  0
   24.4879   -0.9382    0.0000 H   0  0  0  0  0  0  0  0  0  0  0  0
   22.7044   -0.9931    0.0000 H   0  0  0  0  0  0  0  0  0  0  0  0
   25.8378   -4.1377    0.0000 H   0  0  0  0  0  0  0  0  0  0  0  0
   24.5529   -4.4171    0.0000 H   0  0  0  0  0  0  0  0  0  0  0  0
   27.2287   -1.1304    0.0000 H   0  0  0  0  0  0  0  0  0  0  0  0
   25.4517   -0.9674    0.0000 H   0  0  0  0  0  0  0  0  0  0  0  0
   27.8245   -4.5045    0.0000 H   0  0  0  0  0  0  0  0  0  0  0  0
   31.4239   -2.4073    0.0000 H   0  0  0  0  0  0  0  0  0  0  0  0
   29.8922   -4.6141    0.0000 H   0  0  0  0  0  0  0  0  0  0  0  0
   30.1937   -0.1189    0.0000 H   0  0  0  0  0  0  0  0  0  0  0  0
   27.5968   -0.0401    0.0000 H   0  0  0  0  0  0  0  0  0  0  0  0
   25.6015   -2.6259    0.0000 H   0  0  0  0  0  0  0  0  0  0  0  0
   24.2563   -5.5651    0.0000 H   0  0  0  0  0  0  0  0  0  0  0  0
   26.9027   -7.7278    0.0000 H   0  0  0  0  0  0  0  0  0  0  0  0
   27.5781   -6.0761    0.0000 H   0  0  0  0  0  0  0  0  0  0  0  0
   23.8045   -8.2751    0.0000 H   0  0  0  0  0  0  0  0  0  0  0  0
   24.0602   -6.5091    0.0000 H   0  0  0  0  0  0  0  0  0  0  0  0
   27.6860   -7.4340    0.0000 H   0  0  0  0  0  0  0  0  0  0  0  0
   29.0820   -4.3434    0.0000 H   0  0  0  0  0  0  0  0  0  0  0  0
   31.8718   -3.9383    0.0000 H   0  0  0  0  0  0  0  0  0  0  0  0
   29.6869   -4.1396    0.0000 H   0  0  0  0  0  0  0  0  0  0  0  0
   33.4701   -5.1364    0.0000 H   0  0  0  0  0  0  0  0  0  0  0  0
   33.0778   -7.0244    0.0000 H   0  0  0  0  0  0  0  0  0  0  0  0
   31.6178   -7.2495    0.0000 H   0  0  0  0  0  0  0  0  0  0  0  0
  1  2  1  0
  2  3  1  0
  3  4  2  0
  4  5  1  0
  5  6  2  0
  6  7  1  0
  7  8  2  0
  7  9  1  0
  9 10  1  0
 10 11  1  0
 11 12  2  0
  9 13  1  0
 13 14  1  0
 14 15  2  0
 15 16  1  0
 16 17  2  0
 17 18  1  0
 16 19  1  0
 14 20  1  0
 20 21  1  0
 21 22  2  0
 22 23  1  0
 23 24  2  0
 24 25  1  0
 25 26  2  0
 25 27  1  0
  1 28  2  0
  1 29  1  0
 29 30  1  0
 30 31  1  0
 31 32  1  0
 32 33  2  0
 32 34  1  0
 34 35  1  0
 35 36  1  0
 36 37  1  0
 35 38  1  0
 38 39  2  0
 38 40  1  0
 40 41  1  0
 41 42  1  0
 42 43  1  0
 43 44  2  0
 44 45  1  0
 45 46  2  0
 46 47  1  0
 46 48  1  0
 48 49  2  0
 41 50  1  0
 50 51  2  0
 50 52  1  0
 52 53  1  0
 53 54  1  0
 54 55  1  0
 55 56  1  0
 56 57  1  0
 57 58  1  0
 58 59  2  3
 58 60  1  0
 53 61  1  0
 61 62  2  0
 61 63  1  0
 63 64  1  0
 64 65  1  0
 65 66  2  0
 65 67  1  0
 67 68  1  0
 68 69  1  0
 68 70  1  0
 70 71  2  0
 70 72  1  0
 72 73  1  0
 73 74  1  0
 74 75  1  0
 75 76  2  0
 76 77  1  0
 77 78  2  0
 78 79  1  0
 79 80  2  0
 73 81  1  0
 81 82  2  0
 81 83  1  0
 83 84  1  0
 84 85  1  0
 85 86  1  0
 86 87  1  0
 87 88  1  0
 87 89  2  0
 84 90  1  0
 90 91  2  0
 90 92  1  0
 93 92  1  6
 93 94  1  0
 94 95  1  0
 95 96  1  0
 96 97  1  0
 93 98  1  0
 93 99  1  0
 99100  2  0
 99101  1  0
101102  1  0
102103  1  0
103104  1  0
104105  1  0
104106  1  0
102107  1  0
107108  2  0
107109  1  0
109110  1  0
110111  1  0
111112  1  0
112113  2  0
113114  1  0
114115  2  0
115116  1  0
116117  2  0
110118  1  0
118119  2  0
118120  1  0
120121  1  0
121122  1  0
122123  1  0
123124  1  0
124125  1  0
124126  2  0
121127  1  0
127128  2  0
127129  1  0
129130  1  0
130131  1  0
131132  1  0
132133  1  0
133134  1  0
130135  1  0
130136  1  6
136137  2  0
136138  1  0
138139  1  0
139140  1  0
140141  1  0
139142  1  0
142143  2  0
142144  1  0
144145  1  0
145146  1  0
146147  1  0
147148  1  0
148149  1  0
149150  1  0
150151  2  3
150152  1  0
145153  1  0
153154  2  0
153155  1  0
155156  1  0
156157  1  0
157158  1  0
158159  1  0
159160  2  0
159161  1  0
156162  1  0
162163  2  0
162164  1  0
164165  1  0
165166  1  0
166167  1  0
165168  1  0
168169  2  0
168170  1  0
  8  3  1  0
 49 43  1  0
 80 75  1  0
117112  1  0
 11  6  1  0
 97134  2  0
 18 13  2  0
 22  9  1  0
 26 21  1  0
  2171  1  0
  4172  1  0
  5173  1  0
  8174  1  0
 15175  1  0
 17176  1  0
 18177  1  0
 19178  1  0
 23179  1  0
 24180  1  0
 26181  1  0
 27182  1  0
 29183  1  0
 30184  1  0
 30185  1  0
 31186  1  0
 31187  1  0
 34188  1  0
 35189  1  1
 36190  1  0
 36191  1  0
 37192  1  0
 40193  1  0
 41194  1  6
 42195  1  0
 42196  1  0
 44197  1  0
 45198  1  0
 47199  1  0
 48200  1  0
 49201  1  0
 52202  1  0
 53203  1  1
 54204  1  0
 54205  1  0
 55206  1  0
 55207  1  0
 56208  1  0
 56209  1  0
 57210  1  0
 59211  1  0
 59212  1  0
 60213  1  0
 60214  1  0
 63215  1  0
 64216  1  0
 64217  1  0
 67218  1  0
 68219  1  1
 69220  1  0
 69221  1  0
 69222  1  0
 72223  1  0
 73224  1  6
 74225  1  0
 74226  1  0
 76227  1  0
 77228  1  0
 78229  1  0
 79230  1  0
 80231  1  0
 83232  1  0
 84233  1  1
 85234  1  0
 85235  1  0
 86236  1  0
 86237  1  0
 88238  1  0
 88239  1  0
 92240  1  0
 94241  1  0
 94242  1  0
 95243  1  0
 95244  1  0
 96245  1  0
 96246  1  0
 97247  1  0
 98248  1  0
 98249  1  0
 98250  1  0
101251  1  0
102252  1  1
103253  1  0
103254  1  0
104255  1  0
105256  1  0
105257  1  0
105258  1  0
106259  1  0
106260  1  0
106261  1  0
109262  1  0
110263  1  1
111264  1  0
111265  1  0
113266  1  0
114267  1  0
115268  1  0
116269  1  0
117270  1  0
120271  1  0
121272  1  1
122273  1  0
122274  1  0
123275  1  0
123276  1  0
125277  1  0
125278  1  0
129279  1  0
131280  1  0
131281  1  0
132282  1  0
132283  1  0
133284  1  0
133285  1  0
134286  1  0
135287  1  0
135288  1  0
135289  1  0
138290  1  0
139291  1  6
140292  1  0
140293  1  0
141294  1  0
141295  1  0
141296  1  0
144297  1  0
145298  1  1
146299  1  0
146300  1  0
147301  1  0
147302  1  0
148303  1  0
148304  1  0
149305  1  0
151306  1  0
151307  1  0
152308  1  0
152309  1  0
155310  1  0
156311  1  6
157312  1  0
157313  1  0
158314  1  0
158315  1  0
164316  1  0
165317  1  1
166318  1  0
166319  1  0
167320  1  0
167321  1  0
167322  1  0
M  CHG  4  59   1 151   1 161  -1 170  -1
M  END
