
     RDKit          2D

247255  0  0  0  0  0  0  0  0999 V2000
  -18.0739    1.1289    0.0000 C   0  0  0  0  0  0  0  0  0  0  0  0
  -19.3605    0.3577    0.0000 N   0  0  0  0  0  0  0  0  0  0  0  0
  -20.6716    1.0863    0.0000 C   0  0  0  0  0  0  0  0  0  0  0  0
  -20.6962    2.5861    0.0000 C   0  0  0  0  0  0  0  0  0  0  0  0
  -22.0074    3.3147    0.0000 C   0  0  0  0  0  0  0  0  0  0  0  0
  -23.2939    2.5436    0.0000 C   0  0  0  0  0  0  0  0  0  0  0  0
  -23.2693    1.0438    0.0000 C   0  0  0  0  0  0  0  0  0  0  0  0
  -21.9582    0.3151    0.0000 C   0  0  0  0  0  0  0  0  0  0  0  0
  -24.6881    0.5569    0.0000 C   0  0  0  0  0  0  0  0  0  0  0  0
  -25.5896    1.7558    0.0000 O   0  0  0  0  0  0  0  0  0  0  0  0
  -24.7279    2.9836    0.0000 C   0  0  0  0  0  0  0  0  0  0  0  0
  -25.2148    4.4024    0.0000 O   0  0  0  0  0  0  0  0  0  0  0  0
  -26.1501    0.2211    0.0000 C   0  0  0  0  0  0  0  0  0  0  0  0
  -26.5901   -1.2129    0.0000 C   0  0  0  0  0  0  0  0  0  0  0  0
  -28.0521   -1.5488    0.0000 C   0  0  0  0  0  0  0  0  0  0  0  0
  -29.0739   -0.4507    0.0000 C   0  0  0  0  0  0  0  0  0  0  0  0
  -28.6338    0.9833    0.0000 C   0  0  0  0  0  0  0  0  0  0  0  0
  -27.1719    1.3192    0.0000 C   0  0  0  0  0  0  0  0  0  0  0  0
  -30.5358   -0.7866    0.0000 O   0  0  0  0  0  0  0  0  0  0  0  0
  -25.5683   -2.3111    0.0000 O   0  0  0  0  0  0  0  0  0  0  0  0
  -24.1064   -1.9752    0.0000 C   0  0  0  0  0  0  0  0  0  0  0  0
  -23.6663   -0.5412    0.0000 C   0  0  0  0  0  0  0  0  0  0  0  0
  -22.4098   -0.8745    0.0000 C   0  0  0  0  0  0  0  0  0  0  0  0
  -21.8648   -1.4602    0.0000 C   0  0  0  0  0  0  0  0  0  0  0  0
  -22.0995   -2.2250    0.0000 C   0  0  0  0  0  0  0  0  0  0  0  0
  -22.8792   -2.4041    0.0000 C   0  0  0  0  0  0  0  0  0  0  0  0
  -20.6008   -3.8356    0.0000 O   0  0  0  0  0  0  0  0  0  0  0  0
  -18.0985    2.6287    0.0000 S   0  0  0  0  0  0  0  0  0  0  0  0
  -16.7627    0.4003    0.0000 N   0  0  0  0  0  0  0  0  0  0  0  0
  -15.4762    1.1715    0.0000 C   0  0  0  0  0  0  0  0  0  0  0  0
  -14.1650    0.4429    0.0000 C   0  0  0  0  0  0  0  0  0  0  0  0
  -12.8784    1.2141    0.0000 C   0  0  0  0  0  0  0  0  0  0  0  0
  -12.9030    2.7139    0.0000 O   0  0  0  0  0  0  0  0  0  0  0  0
  -11.5673    0.4854    0.0000 N   0  0  0  0  0  0  0  0  0  0  0  0
  -10.2807    1.2566    0.0000 C   0  0  0  0  0  0  0  0  0  0  0  0
   -9.3355    2.4213    0.0000 C   0  0  0  0  0  0  0  0  0  0  0  0
   -7.8542    2.1851    0.0000 C   0  0  0  0  0  0  0  0  0  0  0  0
   -6.9090    3.3498    0.0000 C   0  0  0  0  0  0  0  0  0  0  0  0
   -5.4277    3.1136    0.0000 C   0  0  0  0  0  0  0  0  0  0  0  0
   -4.4825    4.2783    0.0000 N   0  0  0  0  0  0  0  0  0  0  0  0
   -8.9696    0.5280    0.0000 C   0  0  0  0  0  0  0  0  0  0  0  0
   -8.9450   -0.9718    0.0000 O   0  0  0  0  0  0  0  0  0  0  0  0
   -7.6830    1.2992    0.0000 N   0  0  0  0  0  0  0  0  0  0  0  0
   -6.3718    0.5706    0.0000 C   0  0  0  0  0  0  0  0  0  0  0  0
   -5.3889   -0.5625    0.0000 C   0  0  0  0  0  0  0  0  0  0  0  0
   -5.8788   -1.9803    0.0000 C   0  0  0  0  0  0  0  0  0  0  0  0
   -4.8959   -3.1134    0.0000 C   0  0  0  0  0  0  0  0  0  0  0  0
   -5.3858   -4.5311    0.0000 C   0  0  0  0  0  0  0  0  0  0  0  0
   -4.4029   -5.6643    0.0000 N   0  0  0  0  0  0  0  0  0  0  0  0
   -5.0853    1.3418    0.0000 C   0  0  0  0  0  0  0  0  0  0  0  0
   -4.8106    2.5253    0.0000 O   0  0  0  0  0  0  0  0  0  0  0  0
   -3.7741    0.6132    0.0000 N   0  0  0  0  0  0  0  0  0  0  0  0
   -2.4875    1.3844    0.0000 C   0  0  0  0  0  0  0  0  0  0  0  0
   -1.5423    2.5491    0.0000 C   0  0  0  0  0  0  0  0  0  0  0  0
   -0.0610    2.3128    0.0000 C   0  0  0  0  0  0  0  0  0  0  0  0
    0.4750    0.9119    0.0000 C   0  0  0  0  0  0  0  0  0  0  0  0
    1.9563    0.6757    0.0000 C   0  0  0  0  0  0  0  0  0  0  0  0
    2.9015    1.8404    0.0000 C   0  0  0  0  0  0  0  0  0  0  0  0
    2.3655    3.2413    0.0000 C   0  0  0  0  0  0  0  0  0  0  0  0
    0.8842    3.4775    0.0000 C   0  0  0  0  0  0  0  0  0  0  0  0
   -1.1764    0.6557    0.0000 C   0  0  0  0  0  0  0  0  0  0  0  0
   -1.3348   -0.8359    0.0000 O   0  0  0  0  0  0  0  0  0  0  0  0
    0.1102    1.4269    0.0000 N   0  0  0  0  0  0  0  0  0  0  0  0
    1.4214    0.6983    0.0000 C   0  0  0  0  0  0  0  0  0  0  0  0
    2.4042   -0.4348    0.0000 C   0  0  0  0  0  0  0  0  0  0  0  0
    1.9144   -1.8526    0.0000 C   0  0  0  0  0  0  0  0  0  0  0  0
    2.8973   -2.9857    0.0000 C   0  0  0  0  0  0  0  0  0  0  0  0
    2.4074   -4.4034    0.0000 N   0  0  0  0  0  0  0  0  0  0  0  0
    3.3903   -5.5365    0.0000 C   0  0  0  0  0  0  0  0  0  0  0  0
    2.9004   -6.9543    0.0000 N   0  0  0  0  0  0  0  0  0  0  0  0
    4.8630   -5.2519    0.0000 N   0  0  0  0  0  0  0  0  0  0  0  0
    2.7079    1.4695    0.0000 C   0  0  0  0  0  0  0  0  0  0  0  0
    2.8663    2.9611    0.0000 O   0  0  0  0  0  0  0  0  0  0  0  0
    4.0191    0.7409    0.0000 N   0  0  0  0  0  0  0  0  0  0  0  0
    5.3057    1.5121    0.0000 C   0  0  0  0  0  0  0  0  0  0  0  0
    5.5787    2.9870    0.0000 C   0  0  0  0  0  0  0  0  0  0  0  0
    6.2744    4.3159    0.0000 C   0  0  0  0  0  0  0  0  0  0  0  0
    7.3309    5.3807    0.0000 C   0  0  0  0  0  0  0  0  0  0  0  0
    8.6543    6.0868    0.0000 C   0  0  0  0  0  0  0  0  0  0  0  0
    3.9785    2.2110    0.0000 C   0  0  0  0  0  0  0  0  0  0  0  0
    5.4794    0.0222    0.0000 C   0  0  0  0  0  0  0  0  0  0  0  0
    4.1704   -0.7103    0.0000 O   0  0  0  0  0  0  0  0  0  0  0  0
    6.0847   -1.3503    0.0000 N   0  0  0  0  0  0  0  0  0  0  0  0
    7.0675   -2.4834    0.0000 C   0  0  0  0  0  0  0  0  0  0  0  0
    6.8683   -3.9701    0.0000 C   0  0  0  0  0  0  0  0  0  0  0  0
    5.4812   -4.5410    0.0000 C   0  0  0  0  0  0  0  0  0  0  0  0
    5.4647   -6.0409    0.0000 C   0  0  0  0  0  0  0  0  0  0  0  0
    3.9825   -4.6029    0.0000 C   0  0  0  0  0  0  0  0  0  0  0  0
    8.3408   -3.2765    0.0000 C   0  0  0  0  0  0  0  0  0  0  0  0
    7.7463   -4.6537    0.0000 O   0  0  0  0  0  0  0  0  0  0  0  0
    9.7912   -3.6590    0.0000 N   0  0  0  0  0  0  0  0  0  0  0  0
   11.2899   -3.5971    0.0000 C   0  0  0  0  0  0  0  0  0  0  0  0
   12.3280   -4.6798    0.0000 C   0  0  0  0  0  0  0  0  0  0  0  0
   11.9094   -6.1202    0.0000 C   0  0  0  0  0  0  0  0  0  0  0  0
   10.4527   -6.4779    0.0000 C   0  0  0  0  0  0  0  0  0  0  0  0
   10.0341   -7.9183    0.0000 C   0  0  0  0  0  0  0  0  0  0  0  0
   11.0723   -9.0010    0.0000 C   0  0  0  0  0  0  0  0  0  0  0  0
   12.5290   -8.6433    0.0000 C   0  0  0  0  0  0  0  0  0  0  0  0
   12.9476   -7.2029    0.0000 C   0  0  0  0  0  0  0  0  0  0  0  0
   12.7037   -3.0961    0.0000 C   0  0  0  0  0  0  0  0  0  0  0  0
   13.4098   -4.4195    0.0000 O   0  0  0  0  0  0  0  0  0  0  0  0
   13.9071   -2.2006    0.0000 N   0  0  0  0  0  0  0  0  0  0  0  0
   14.7931   -0.9903    0.0000 C   0  0  0  0  0  0  0  0  0  0  0  0
   16.2869   -0.8537    0.0000 C   0  0  0  0  0  0  0  0  0  0  0  0
   17.1521   -2.0790    0.0000 C   0  0  0  0  0  0  0  0  0  0  0  0
   16.5235   -3.4410    0.0000 C   0  0  0  0  0  0  0  0  0  0  0  0
   17.3887   -4.6663    0.0000 C   0  0  0  0  0  0  0  0  0  0  0  0
   18.8824   -4.5297    0.0000 C   0  0  0  0  0  0  0  0  0  0  0  0
   19.5110   -3.1678    0.0000 C   0  0  0  0  0  0  0  0  0  0  0  0
   18.6458   -1.9424    0.0000 C   0  0  0  0  0  0  0  0  0  0  0  0
   15.2830    0.4275    0.0000 C   0  0  0  0  0  0  0  0  0  0  0  0
   16.7579    0.1544    0.0000 O   0  0  0  0  0  0  0  0  0  0  0  0
   15.3332    1.9267    0.0000 N   0  0  0  0  0  0  0  0  0  0  0  0
   14.9393    3.3740    0.0000 C   0  0  0  0  0  0  0  0  0  0  0  0
   14.1363    4.6410    0.0000 C   0  0  0  0  0  0  0  0  0  0  0  0
   12.9955    5.6149    0.0000 C   0  0  0  0  0  0  0  0  0  0  0  0
   11.6183    6.2094    0.0000 C   0  0  0  0  0  0  0  0  0  0  0  0
   10.1271    6.3715    0.0000 C   0  0  0  0  0  0  0  0  0  0  0  0
   16.4206    3.1378    0.0000 C   0  0  0  0  0  0  0  0  0  0  0  0
   15.7639    4.6270    0.0000 C   0  0  0  0  0  0  0  0  0  0  0  0
   15.4354    6.0906    0.0000 O   0  0  0  0  0  0  0  0  0  0  0  0
   17.2613    4.5395    0.0000 N   0  0  0  0  0  0  0  0  0  0  0  0
   18.0859    5.7925    0.0000 C   0  0  0  0  0  0  0  0  0  0  0  0
   18.4321    7.2520    0.0000 C   0  0  0  0  0  0  0  0  0  0  0  0
   19.8061    7.8538    0.0000 O   0  0  0  0  0  0  0  0  0  0  0  0
   19.5833    5.7049    0.0000 C   0  0  0  0  0  0  0  0  0  0  0  0
   20.5544    6.8481    0.0000 O   0  0  0  0  0  0  0  0  0  0  0  0
   20.2562    4.3643    0.0000 O   0  0  0  0  0  0  0  0  0  0  0  0
  -19.1533   -1.1279    0.0000 H   0  0  0  0  0  0  0  0  0  0  0  0
  -19.4096    3.3573    0.0000 H   0  0  0  0  0  0  0  0  0  0  0  0
  -22.0319    4.8145    0.0000 H   0  0  0  0  0  0  0  0  0  0  0  0
  -21.5714   -1.1341    0.0000 H   0  0  0  0  0  0  0  0  0  0  0  0
  -28.4921   -2.9828    0.0000 H   0  0  0  0  0  0  0  0  0  0  0  0
  -29.6556    2.0814    0.0000 H   0  0  0  0  0  0  0  0  0  0  0  0
  -26.7318    2.7532    0.0000 H   0  0  0  0  0  0  0  0  0  0  0  0
  -31.5576    0.3116    0.0000 H   0  0  0  0  0  0  0  0  0  0  0  0
  -21.7643    1.2287    0.0000 H   0  0  0  0  0  0  0  0  0  0  0  0
  -19.6906   -1.1483    0.0000 H   0  0  0  0  0  0  0  0  0  0  0  0
  -23.5247   -4.5073    0.0000 H   0  0  0  0  0  0  0  0  0  0  0  0
  -21.0409   -5.2695    0.0000 H   0  0  0  0  0  0  0  0  0  0  0  0
  -16.7382   -1.0995    0.0000 H   0  0  0  0  0  0  0  0  0  0  0  0
  -14.5309    2.3362    0.0000 H   0  0  0  0  0  0  0  0  0  0  0  0
  -16.4590    2.3046    0.0000 H   0  0  0  0  0  0  0  0  0  0  0  0
  -13.1821   -0.6902    0.0000 H   0  0  0  0  0  0  0  0  0  0  0  0
  -15.1102   -0.7218    0.0000 H   0  0  0  0  0  0  0  0  0  0  0  0
  -11.5427   -1.0144    0.0000 H   0  0  0  0  0  0  0  0  0  0  0  0
  -11.2636    2.3897    0.0000 H   0  0  0  0  0  0  0  0  0  0  0  0
   -9.0221    3.8882    0.0000 H   0  0  0  0  0  0  0  0  0  0  0  0
  -10.6466    3.1500    0.0000 H   0  0  0  0  0  0  0  0  0  0  0  0
   -6.6416    1.3021    0.0000 H   0  0  0  0  0  0  0  0  0  0  0  0
   -7.6210    0.7034    0.0000 H   0  0  0  0  0  0  0  0  0  0  0  0
   -6.4191    4.7676    0.0000 H   0  0  0  0  0  0  0  0  0  0  0  0
   -8.1215    4.2328    0.0000 H   0  0  0  0  0  0  0  0  0  0  0  0
   -4.0375    2.5502    0.0000 H   0  0  0  0  0  0  0  0  0  0  0  0
   -5.7411    1.6467    0.0000 H   0  0  0  0  0  0  0  0  0  0  0  0
   -3.0410    3.8633    0.0000 H   0  0  0  0  0  0  0  0  0  0  0  0
   -5.0185    5.6792    0.0000 H   0  0  0  0  0  0  0  0  0  0  0  0
   -7.3439    2.7604    0.0000 H   0  0  0  0  0  0  0  0  0  0  0  0
   -7.4520   -0.4702    0.0000 H   0  0  0  0  0  0  0  0  0  0  0  0
   -4.0778   -1.2911    0.0000 H   0  0  0  0  0  0  0  0  0  0  0  0
   -4.1900    0.3389    0.0000 H   0  0  0  0  0  0  0  0  0  0  0  0
   -6.9590   -3.0211    0.0000 H   0  0  0  0  0  0  0  0  0  0  0  0
   -7.2690   -1.4169    0.0000 H   0  0  0  0  0  0  0  0  0  0  0  0
   -3.5848   -3.8420    0.0000 H   0  0  0  0  0  0  0  0  0  0  0  0
   -3.8158   -2.0726    0.0000 H   0  0  0  0  0  0  0  0  0  0  0  0
   -6.3310   -5.6959    0.0000 H   0  0  0  0  0  0  0  0  0  0  0  0
   -6.7760   -3.9678    0.0000 H   0  0  0  0  0  0  0  0  0  0  0  0
   -4.8928   -7.0820    0.0000 H   0  0  0  0  0  0  0  0  0  0  0  0
   -2.9302   -5.3796    0.0000 H   0  0  0  0  0  0  0  0  0  0  0  0
   -3.5669   -0.8725    0.0000 H   0  0  0  0  0  0  0  0  0  0  0  0
   -3.3250    2.6288    0.0000 H   0  0  0  0  0  0  0  0  0  0  0  0
   -1.0524    3.9668    0.0000 H   0  0  0  0  0  0  0  0  0  0  0  0
   -2.9325    3.1124    0.0000 H   0  0  0  0  0  0  0  0  0  0  0  0
   -0.3212   -0.3594    0.0000 H   0  0  0  0  0  0  0  0  0  0  0  0
    2.8154   -0.5539    0.0000 H   0  0  0  0  0  0  0  0  0  0  0  0
    4.3828    1.6041    0.0000 H   0  0  0  0  0  0  0  0  0  0  0  0
    3.3107    4.4060    0.0000 H   0  0  0  0  0  0  0  0  0  0  0  0
    0.3481    4.8785    0.0000 H   0  0  0  0  0  0  0  0  0  0  0  0
    0.4493    2.8881    0.0000 H   0  0  0  0  0  0  0  0  0  0  0  0
    0.3412   -0.3425    0.0000 H   0  0  0  0  0  0  0  0  0  0  0  0
    3.6168   -1.3178    0.0000 H   0  0  0  0  0  0  0  0  0  0  0  0
    3.4844    0.6060    0.0000 H   0  0  0  0  0  0  0  0  0  0  0  0
    0.9691   -3.0173    0.0000 H   0  0  0  0  0  0  0  0  0  0  0  0
    0.5242   -1.2892    0.0000 H   0  0  0  0  0  0  0  0  0  0  0  0
    4.2874   -3.5490    0.0000 H   0  0  0  0  0  0  0  0  0  0  0  0
    3.9774   -1.9449    0.0000 H   0  0  0  0  0  0  0  0  0  0  0  0
    0.9346   -4.6881    0.0000 H   0  0  0  0  0  0  0  0  0  0  0  0
    3.8833   -8.0874    0.0000 H   0  0  0  0  0  0  0  0  0  0  0  0
    5.7004   -6.4964    0.0000 H   0  0  0  0  0  0  0  0  0  0  0  0
    4.8121   -3.7528    0.0000 H   0  0  0  0  0  0  0  0  0  0  0  0
    4.0437   -0.7589    0.0000 H   0  0  0  0  0  0  0  0  0  0  0  0
    4.0893    2.8095    0.0000 H   0  0  0  0  0  0  0  0  0  0  0  0
    4.6536    4.1677    0.0000 H   0  0  0  0  0  0  0  0  0  0  0  0
    4.8427    4.7632    0.0000 H   0  0  0  0  0  0  0  0  0  0  0  0
    5.5716    5.6411    0.0000 H   0  0  0  0  0  0  0  0  0  0  0  0
    6.0003    6.0731    0.0000 H   0  0  0  0  0  0  0  0  0  0  0  0
    7.2316    6.8774    0.0000 H   0  0  0  0  0  0  0  0  0  0  0  0
    8.1534    7.5007    0.0000 H   0  0  0  0  0  0  0  0  0  0  0  0
    3.7923    3.8666    0.0000 H   0  0  0  0  0  0  0  0  0  0  0  0
    2.5676    2.5809    0.0000 H   0  0  0  0  0  0  0  0  0  0  0  0
    3.0484    1.2770    0.0000 H   0  0  0  0  0  0  0  0  0  0  0  0
    4.8177   -2.1533    0.0000 H   0  0  0  0  0  0  0  0  0  0  0  0
    5.5888   -2.7349    0.0000 H   0  0  0  0  0  0  0  0  0  0  0  0
    7.3658   -5.3852    0.0000 H   0  0  0  0  0  0  0  0  0  0  0  0
    8.3375   -4.2727    0.0000 H   0  0  0  0  0  0  0  0  0  0  0  0
    5.1599   -3.0758    0.0000 H   0  0  0  0  0  0  0  0  0  0  0  0
    3.9745   -6.7857    0.0000 H   0  0  0  0  0  0  0  0  0  0  0  0
    5.6032   -7.4929    0.0000 H   0  0  0  0  0  0  0  0  0  0  0  0
    6.7800   -6.1267    0.0000 H   0  0  0  0  0  0  0  0  0  0  0  0
    3.4539   -6.0067    0.0000 H   0  0  0  0  0  0  0  0  0  0  0  0
    2.4855   -4.5080    0.0000 H   0  0  0  0  0  0  0  0  0  0  0  0
    4.3614   -3.1516    0.0000 H   0  0  0  0  0  0  0  0  0  0  0  0
    9.4485   -5.1194    0.0000 H   0  0  0  0  0  0  0  0  0  0  0  0
   10.7299   -4.9886    0.0000 H   0  0  0  0  0  0  0  0  0  0  0  0
   13.6739   -5.3421    0.0000 H   0  0  0  0  0  0  0  0  0  0  0  0
   13.4806   -3.7198    0.0000 H   0  0  0  0  0  0  0  0  0  0  0  0
    9.2903   -5.5298    0.0000 H   0  0  0  0  0  0  0  0  0  0  0  0
    8.5774   -8.2760    0.0000 H   0  0  0  0  0  0  0  0  0  0  0  0
   10.6537  -10.4414    0.0000 H   0  0  0  0  0  0  0  0  0  0  0  0
   13.5671   -9.7260    0.0000 H   0  0  0  0  0  0  0  0  0  0  0  0
   14.4043   -6.8452    0.0000 H   0  0  0  0  0  0  0  0  0  0  0  0
   14.8352   -3.3791    0.0000 H   0  0  0  0  0  0  0  0  0  0  0  0
   15.5320   -2.2957    0.0000 H   0  0  0  0  0  0  0  0  0  0  0  0
   17.6439   -0.2144    0.0000 H   0  0  0  0  0  0  0  0  0  0  0  0
   16.2549    0.6460    0.0000 H   0  0  0  0  0  0  0  0  0  0  0  0
   15.0575   -3.7586    0.0000 H   0  0  0  0  0  0  0  0  0  0  0  0
   16.7601   -6.0282    0.0000 H   0  0  0  0  0  0  0  0  0  0  0  0
   19.7476   -5.7551    0.0000 H   0  0  0  0  0  0  0  0  0  0  0  0
   21.0048   -3.0312    0.0000 H   0  0  0  0  0  0  0  0  0  0  0  0
   19.2744   -0.5805    0.0000 H   0  0  0  0  0  0  0  0  0  0  0  0
   16.8231    2.1004    0.0000 H   0  0  0  0  0  0  0  0  0  0  0  0
   14.5549    6.0814    0.0000 H   0  0  0  0  0  0  0  0  0  0  0  0
   15.5262    5.2049    0.0000 H   0  0  0  0  0  0  0  0  0  0  0  0
   13.1539    7.1065    0.0000 H   0  0  0  0  0  0  0  0  0  0  0  0
   14.1574    6.5635    0.0000 H   0  0  0  0  0  0  0  0  0  0  0  0
   11.1527    7.6353    0.0000 H   0  0  0  0  0  0  0  0  0  0  0  0
   12.5951    7.3477    0.0000 H   0  0  0  0  0  0  0  0  0  0  0  0
   10.0651    7.8702    0.0000 H   0  0  0  0  0  0  0  0  0  0  0  0
   17.6195    4.0392    0.0000 H   0  0  0  0  0  0  0  0  0  0  0  0
   17.6331    2.2548    0.0000 H   0  0  0  0  0  0  0  0  0  0  0  0
   16.2883    1.6436    0.0000 H   0  0  0  0  0  0  0  0  0  0  0  0
   18.0926    3.2909    0.0000 H   0  0  0  0  0  0  0  0  0  0  0  0
   16.7087    6.3870    0.0000 H   0  0  0  0  0  0  0  0  0  0  0  0
   18.2583    8.7419    0.0000 H   0  0  0  0  0  0  0  0  0  0  0  0
   16.9347    7.3396    0.0000 H   0  0  0  0  0  0  0  0  0  0  0  0
   20.2155    9.1414    0.0000 H   0  0  0  0  0  0  0  0  0  0  0  0
   21.7536    4.2768    0.0000 H   0  0  0  0  0  0  0  0  0  0  0  0
  1  2  1  0
  2  3  1  0
  3  4  2  0
  4  5  1  0
  5  6  2  0
  6  7  1  0
  7  8  2  0
  7  9  1  0
  9 10  1  0
 10 11  1  0
 11 12  2  0
  9 13  1  0
 13 14  1  0
 14 15  2  0
 15 16  1  0
 16 17  2  0
 17 18  1  0
 16 19  1  0
 14 20  1  0
 20 21  1  0
 21 22  2  0
 22 23  1  0
 23 24  2  0
 24 25  1  0
 25 26  2  0
 25 27  1  0
  1 28  2  0
  1 29  1  0
 29 30  1  0
 30 31  1  0
 31 32  1  0
 32 33  2  0
 32 34  1  0
 34 35  1  0
 35 36  1  0
 36 37  1  0
 37 38  1  0
 38 39  1  0
 39 40  1  0
 35 41  1  0
 41 42  2  0
 41 43  1  0
 43 44  1  0
 44 45  1  0
 45 46  1  0
 46 47  1  0
 47 48  1  0
 48 49  1  0
 44 50  1  0
 50 51  2  0
 50 52  1  0
 52 53  1  0
 53 54  1  0
 54 55  1  0
 55 56  2  0
 56 57  1  0
 57 58  2  0
 58 59  1  0
 59 60  2  0
 53 61  1  0
 61 62  2  0
 61 63  1  0
 63 64  1  0
 64 65  1  0
 65 66  1  0
 66 67  1  0
 67 68  1  0
 68 69  1  0
 69 70  2  3
 69 71  1  0
 64 72  1  0
 72 73  2  0
 72 74  1  0
 75 74  1  1
 75 76  1  0
 76 77  1  0
 77 78  1  0
 78 79  1  0
 75 80  1  0
 75 81  1  0
 81 82  2  0
 81 83  1  0
 83 84  1  0
 84 85  1  0
 85 86  1  0
 86 87  1  0
 86 88  1  0
 84 89  1  0
 89 90  2  0
 89 91  1  0
 91 92  1  0
 92 93  1  0
 93 94  1  0
 94 95  2  0
 95 96  1  0
 96 97  2  0
 97 98  1  0
 98 99  2  0
 92100  1  0
100101  2  0
100102  1  0
102103  1  0
103104  1  0
104105  1  0
105106  2  0
106107  1  0
107108  2  0
108109  1  0
109110  2  0
103111  1  0
111112  2  0
111113  1  0
113114  1  0
114115  1  0
115116  1  0
116117  1  0
117118  1  0
114119  1  0
114120  1  1
120121  2  0
120122  1  0
122123  1  0
123124  1  0
124125  1  0
123126  1  0
126127  2  0
126128  1  0
  8  3  1  0
 60 55  1  0
 99 94  1  0
110105  1  0
 11  6  1  0
 79118  2  0
 18 13  2  0
 22  9  1  0
 26 21  1  0
  2129  1  0
  4130  1  0
  5131  1  0
  8132  1  0
 15133  1  0
 17134  1  0
 18135  1  0
 19136  1  0
 23137  1  0
 24138  1  0
 26139  1  0
 27140  1  0
 29141  1  0
 30142  1  0
 30143  1  0
 31144  1  0
 31145  1  0
 34146  1  0
 35147  1  1
 36148  1  0
 36149  1  0
 37150  1  0
 37151  1  0
 38152  1  0
 38153  1  0
 39154  1  0
 39155  1  0
 40156  1  0
 40157  1  0
 43158  1  0
 44159  1  6
 45160  1  0
 45161  1  0
 46162  1  0
 46163  1  0
 47164  1  0
 47165  1  0
 48166  1  0
 48167  1  0
 49168  1  0
 49169  1  0
 52170  1  0
 53171  1  1
 54172  1  0
 54173  1  0
 56174  1  0
 57175  1  0
 58176  1  0
 59177  1  0
 60178  1  0
 63179  1  0
 64180  1  6
 65181  1  0
 65182  1  0
 66183  1  0
 66184  1  0
 67185  1  0
 67186  1  0
 68187  1  0
 70188  1  0
 71189  1  0
 71190  1  0
 74191  1  0
 76192  1  0
 76193  1  0
 77194  1  0
 77195  1  0
 78196  1  0
 78197  1  0
 79198  1  0
 80199  1  0
 80200  1  0
 80201  1  0
 83202  1  0
 84203  1  6
 85204  1  0
 85205  1  0
 86206  1  0
 87207  1  0
 87208  1  0
 87209  1  0
 88210  1  0
 88211  1  0
 88212  1  0
 91213  1  0
 92214  1  6
 93215  1  0
 93216  1  0
 95217  1  0
 96218  1  0
 97219  1  0
 98220  1  0
 99221  1  0
102222  1  0
103223  1  6
104224  1  0
104225  1  0
106226  1  0
107227  1  0
108228  1  0
109229  1  0
110230  1  0
113231  1  0
115232  1  0
115233  1  0
116234  1  0
116235  1  0
117236  1  0
117237  1  0
118238  1  0
119239  1  0
119240  1  0
119241  1  0
122242  1  0
123243  1  1
124244  1  0
124245  1  0
125246  1  0
128247  1  0
M  END
