
     RDKit          2D

213216  0  0  0  0  0  0  0  0999 V2000
  -15.8079    4.9614    0.0000 N   0  0  0  0  0  0  0  0  0  0  0  0
  -14.5705    4.1137    0.0000 C   0  0  0  0  0  0  0  0  0  0  0  0
  -13.2176    4.7615    0.0000 C   0  0  0  0  0  0  0  0  0  0  0  0
  -11.9801    3.9137    0.0000 C   0  0  0  0  0  0  0  0  0  0  0  0
  -12.0955    2.4182    0.0000 O   0  0  0  0  0  0  0  0  0  0  0  0
  -10.6272    4.5615    0.0000 N   0  0  0  0  0  0  0  0  0  0  0  0
   -9.3897    3.7138    0.0000 C   0  0  0  0  0  0  0  0  0  0  0  0
   -8.7697    5.0797    0.0000 C   0  0  0  0  0  0  0  0  0  0  0  0
   -9.6426    6.2995    0.0000 C   0  0  0  0  0  0  0  0  0  0  0  0
   -9.0227    7.6654    0.0000 C   0  0  0  0  0  0  0  0  0  0  0  0
   -9.8956    8.8853    0.0000 N   0  0  0  0  0  0  0  0  0  0  0  0
   -9.2756   10.2512    0.0000 C   0  0  0  0  0  0  0  0  0  0  0  0
  -10.1485   11.4710    0.0000 N   0  0  0  0  0  0  0  0  0  0  0  0
   -7.7827   10.3972    0.0000 N   0  0  0  0  0  0  0  0  0  0  0  0
   -8.5168    2.4940    0.0000 C   0  0  0  0  0  0  0  0  0  0  0  0
   -7.0239    2.6400    0.0000 O   0  0  0  0  0  0  0  0  0  0  0  0
   -9.1368    1.1281    0.0000 N   0  0  0  0  0  0  0  0  0  0  0  0
   -8.2639   -0.0918    0.0000 C   0  0  0  0  0  0  0  0  0  0  0  0
   -9.6168   -0.7396    0.0000 C   0  0  0  0  0  0  0  0  0  0  0  0
  -10.8543    0.1081    0.0000 C   0  0  0  0  0  0  0  0  0  0  0  0
  -12.2072   -0.5397    0.0000 C   0  0  0  0  0  0  0  0  0  0  0  0
  -13.4446    0.3081    0.0000 C   0  0  0  0  0  0  0  0  0  0  0  0
  -14.7975   -0.3398    0.0000 N   0  0  0  0  0  0  0  0  0  0  0  0
   -7.0264   -0.9395    0.0000 C   0  0  0  0  0  0  0  0  0  0  0  0
   -5.6735   -0.2917    0.0000 O   0  0  0  0  0  0  0  0  0  0  0  0
   -7.1418   -2.4351    0.0000 N   0  0  0  0  0  0  0  0  0  0  0  0
   -5.9044   -3.2828    0.0000 C   0  0  0  0  0  0  0  0  0  0  0  0
   -6.9541   -4.3543    0.0000 C   0  0  0  0  0  0  0  0  0  0  0  0
   -8.4069   -3.9809    0.0000 C   0  0  0  0  0  0  0  0  0  0  0  0
   -8.8099   -2.5361    0.0000 C   0  0  0  0  0  0  0  0  0  0  0  0
   -7.7602   -1.4646    0.0000 F   0  0  0  0  0  0  0  0  0  0  0  0
  -10.2627   -2.1627    0.0000 C   0  0  0  0  0  0  0  0  0  0  0  0
  -10.6658   -0.7179    0.0000 F   0  0  0  0  0  0  0  0  0  0  0  0
  -11.3125   -3.2342    0.0000 C   0  0  0  0  0  0  0  0  0  0  0  0
  -12.7653   -2.8608    0.0000 F   0  0  0  0  0  0  0  0  0  0  0  0
  -10.9094   -4.6790    0.0000 C   0  0  0  0  0  0  0  0  0  0  0  0
  -11.9592   -5.7505    0.0000 F   0  0  0  0  0  0  0  0  0  0  0  0
   -9.4566   -5.0524    0.0000 C   0  0  0  0  0  0  0  0  0  0  0  0
   -9.0536   -6.4972    0.0000 F   0  0  0  0  0  0  0  0  0  0  0  0
   -4.4516   -3.6562    0.0000 C   0  0  0  0  0  0  0  0  0  0  0  0
   -4.2277   -5.1394    0.0000 O   0  0  0  0  0  0  0  0  0  0  0  0
   -3.4018   -2.5847    0.0000 N   0  0  0  0  0  0  0  0  0  0  0  0
   -1.9490   -2.9581    0.0000 C   0  0  0  0  0  0  0  0  0  0  0  0
   -2.2062   -1.4803    0.0000 C   0  0  0  0  0  0  0  0  0  0  0  0
   -2.0164    0.0076    0.0000 C   0  0  0  0  0  0  0  0  0  0  0  0
   -1.3964    1.3735    0.0000 C   0  0  0  0  0  0  0  0  0  0  0  0
   -0.4014    2.4960    0.0000 C   0  0  0  0  0  0  0  0  0  0  0  0
   -2.8869   -4.1287    0.0000 C   0  0  0  0  0  0  0  0  0  0  0  0
   -1.2677   -4.2944    0.0000 C   0  0  0  0  0  0  0  0  0  0  0  0
   -2.4876   -5.1673    0.0000 O   0  0  0  0  0  0  0  0  0  0  0  0
   -0.2227   -5.3705    0.0000 N   0  0  0  0  0  0  0  0  0  0  0  0
    1.0930   -6.0908    0.0000 C   0  0  0  0  0  0  0  0  0  0  0  0
    1.4235   -7.5540    0.0000 C   0  0  0  0  0  0  0  0  0  0  0  0
    0.3217   -8.5718    0.0000 C   0  0  0  0  0  0  0  0  0  0  0  0
    0.6522  -10.0349    0.0000 C   0  0  0  0  0  0  0  0  0  0  0  0
   -0.4497  -11.0527    0.0000 N   0  0  0  0  0  0  0  0  0  0  0  0
   -0.1191  -12.5159    0.0000 C   0  0  0  0  0  0  0  0  0  0  0  0
   -1.2210  -13.5337    0.0000 N   0  0  0  0  0  0  0  0  0  0  0  0
    1.3132  -12.9612    0.0000 N   0  0  0  0  0  0  0  0  0  0  0  0
    2.5626   -6.3913    0.0000 C   0  0  0  0  0  0  0  0  0  0  0  0
    2.4845   -7.8893    0.0000 O   0  0  0  0  0  0  0  0  0  0  0  0
    4.0555   -6.2453    0.0000 N   0  0  0  0  0  0  0  0  0  0  0  0
    5.4390   -5.6657    0.0000 C   0  0  0  0  0  0  0  0  0  0  0  0
    6.7890   -6.3196    0.0000 C   0  0  0  0  0  0  0  0  0  0  0  0
    6.8977   -7.8156    0.0000 C   0  0  0  0  0  0  0  0  0  0  0  0
    8.2477   -8.4695    0.0000 C   0  0  0  0  0  0  0  0  0  0  0  0
    6.4883   -9.2587    0.0000 C   0  0  0  0  0  0  0  0  0  0  0  0
    6.5902   -4.7041    0.0000 C   0  0  0  0  0  0  0  0  0  0  0  0
    7.7126   -5.6991    0.0000 O   0  0  0  0  0  0  0  0  0  0  0  0
    7.4068   -3.4459    0.0000 N   0  0  0  0  0  0  0  0  0  0  0  0
    7.8163   -2.0029    0.0000 C   0  0  0  0  0  0  0  0  0  0  0  0
    9.1692   -1.3551    0.0000 C   0  0  0  0  0  0  0  0  0  0  0  0
   10.4066   -2.2028    0.0000 C   0  0  0  0  0  0  0  0  0  0  0  0
   10.2912   -3.6983    0.0000 C   0  0  0  0  0  0  0  0  0  0  0  0
   11.5287   -4.5461    0.0000 C   0  0  0  0  0  0  0  0  0  0  0  0
   12.8816   -3.8983    0.0000 C   0  0  0  0  0  0  0  0  0  0  0  0
   12.9970   -2.4027    0.0000 C   0  0  0  0  0  0  0  0  0  0  0  0
   11.7595   -1.5550    0.0000 C   0  0  0  0  0  0  0  0  0  0  0  0
    7.7822   -0.5033    0.0000 C   0  0  0  0  0  0  0  0  0  0  0  0
    9.2600   -0.2461    0.0000 O   0  0  0  0  0  0  0  0  0  0  0  0
    7.3077    0.9197    0.0000 N   0  0  0  0  0  0  0  0  0  0  0  0
    6.4348    2.1396    0.0000 C   0  0  0  0  0  0  0  0  0  0  0  0
    5.2411    3.0479    0.0000 C   0  0  0  0  0  0  0  0  0  0  0  0
    3.8327    3.5641    0.0000 C   0  0  0  0  0  0  0  0  0  0  0  0
    2.3347    3.6422    0.0000 C   0  0  0  0  0  0  0  0  0  0  0  0
    0.8803    3.2753    0.0000 C   0  0  0  0  0  0  0  0  0  0  0  0
    7.9057    2.4335    0.0000 C   0  0  0  0  0  0  0  0  0  0  0  0
    6.7718    3.6012    0.0000 C   0  0  0  0  0  0  0  0  0  0  0  0
    5.9546    4.8590    0.0000 O   0  0  0  0  0  0  0  0  0  0  0  0
    8.2061    4.0401    0.0000 N   0  0  0  0  0  0  0  0  0  0  0  0
    8.5432    5.5018    0.0000 C   0  0  0  0  0  0  0  0  0  0  0  0
    8.3600    6.9906    0.0000 C   0  0  0  0  0  0  0  0  0  0  0  0
    9.4387    8.0329    0.0000 O   0  0  0  0  0  0  0  0  0  0  0  0
    9.9775    5.9407    0.0000 C   0  0  0  0  0  0  0  0  0  0  0  0
   10.3145    7.4024    0.0000 O   0  0  0  0  0  0  0  0  0  0  0  0
   11.0748    4.9180    0.0000 N   0  0  0  0  0  0  0  0  0  0  0  0
   12.5091    5.3570    0.0000 C   0  0  0  0  0  0  0  0  0  0  0  0
   13.7069    6.2600    0.0000 C   0  0  0  0  0  0  0  0  0  0  0  0
   13.5237    7.7488    0.0000 C   0  0  0  0  0  0  0  0  0  0  0  0
   12.1427    8.3345    0.0000 C   0  0  0  0  0  0  0  0  0  0  0  0
   11.9595    9.8233    0.0000 C   0  0  0  0  0  0  0  0  0  0  0  0
   13.1573   10.7263    0.0000 C   0  0  0  0  0  0  0  0  0  0  0  0
   12.9741   12.2151    0.0000 O   0  0  0  0  0  0  0  0  0  0  0  0
   14.5382   10.1406    0.0000 C   0  0  0  0  0  0  0  0  0  0  0  0
   14.7214    8.6518    0.0000 C   0  0  0  0  0  0  0  0  0  0  0  0
   13.6065    4.3343    0.0000 C   0  0  0  0  0  0  0  0  0  0  0  0
   15.0836    4.5951    0.0000 O   0  0  0  0  0  0  0  0  0  0  0  0
   13.2694    2.8726    0.0000 O   0  0  0  0  0  0  0  0  0  0  0  0
  -17.1608    4.3136    0.0000 H   0  0  0  0  0  0  0  0  0  0  0  0
  -15.6925    6.4569    0.0000 H   0  0  0  0  0  0  0  0  0  0  0  0
  -15.6202    3.0422    0.0000 H   0  0  0  0  0  0  0  0  0  0  0  0
  -13.6976    2.8938    0.0000 H   0  0  0  0  0  0  0  0  0  0  0  0
  -14.0905    5.9813    0.0000 H   0  0  0  0  0  0  0  0  0  0  0  0
  -12.1678    5.8329    0.0000 H   0  0  0  0  0  0  0  0  0  0  0  0
  -10.6632    5.3579    0.0000 H   0  0  0  0  0  0  0  0  0  0  0  0
  -10.4395    2.6423    0.0000 H   0  0  0  0  0  0  0  0  0  0  0  0
   -7.5972    6.0152    0.0000 H   0  0  0  0  0  0  0  0  0  0  0  0
   -7.5323    4.2320    0.0000 H   0  0  0  0  0  0  0  0  0  0  0  0
  -10.8801    7.1473    0.0000 H   0  0  0  0  0  0  0  0  0  0  0  0
  -10.4481    5.9311    0.0000 H   0  0  0  0  0  0  0  0  0  0  0  0
   -7.9729    8.7369    0.0000 H   0  0  0  0  0  0  0  0  0  0  0  0
   -7.6911    6.9749    0.0000 H   0  0  0  0  0  0  0  0  0  0  0  0
  -11.3885    8.7393    0.0000 H   0  0  0  0  0  0  0  0  0  0  0  0
   -9.5285   12.8369    0.0000 H   0  0  0  0  0  0  0  0  0  0  0  0
  -11.6414   11.3250    0.0000 H   0  0  0  0  0  0  0  0  0  0  0  0
   -7.1628   11.7631    0.0000 H   0  0  0  0  0  0  0  0  0  0  0  0
   -6.9098    9.1773    0.0000 H   0  0  0  0  0  0  0  0  0  0  0  0
  -10.6363    1.1651    0.0000 H   0  0  0  0  0  0  0  0  0  0  0  0
   -7.2141    0.9797    0.0000 H   0  0  0  0  0  0  0  0  0  0  0  0
  -10.7893   -1.6751    0.0000 H   0  0  0  0  0  0  0  0  0  0  0  0
   -8.4747   -1.7120    0.0000 H   0  0  0  0  0  0  0  0  0  0  0  0
  -11.5720    1.4253    0.0000 H   0  0  0  0  0  0  0  0  0  0  0  0
  -10.2583    1.4847    0.0000 H   0  0  0  0  0  0  0  0  0  0  0  0
  -13.1185   -1.7311    0.0000 H   0  0  0  0  0  0  0  0  0  0  0  0
  -11.4895   -1.8568    0.0000 H   0  0  0  0  0  0  0  0  0  0  0  0
  -14.3175    1.5279    0.0000 H   0  0  0  0  0  0  0  0  0  0  0  0
  -12.5333    1.4995    0.0000 H   0  0  0  0  0  0  0  0  0  0  0  0
  -16.0350    0.5080    0.0000 H   0  0  0  0  0  0  0  0  0  0  0  0
  -15.8473   -1.4112    0.0000 H   0  0  0  0  0  0  0  0  0  0  0  0
  -14.0798   -1.6569    0.0000 H   0  0  0  0  0  0  0  0  0  0  0  0
   -8.6113   -2.7363    0.0000 H   0  0  0  0  0  0  0  0  0  0  0  0
   -5.2844   -1.9169    0.0000 H   0  0  0  0  0  0  0  0  0  0  0  0
   -7.5741   -5.7202    0.0000 H   0  0  0  0  0  0  0  0  0  0  0  0
   -5.7166   -5.2020    0.0000 H   0  0  0  0  0  0  0  0  0  0  0  0
   -4.1425   -1.2803    0.0000 H   0  0  0  0  0  0  0  0  0  0  0  0
   -3.6144   -1.9971    0.0000 H   0  0  0  0  0  0  0  0  0  0  0  0
   -3.4844   -0.6953    0.0000 H   0  0  0  0  0  0  0  0  0  0  0  0
   -3.5143   -0.0712    0.0000 H   0  0  0  0  0  0  0  0  0  0  0  0
   -3.1364    1.0054    0.0000 H   0  0  0  0  0  0  0  0  0  0  0  0
   -2.8848    1.5597    0.0000 H   0  0  0  0  0  0  0  0  0  0  0  0
   -2.0103    2.7422    0.0000 H   0  0  0  0  0  0  0  0  0  0  0  0
   -1.3630    3.6472    0.0000 H   0  0  0  0  0  0  0  0  0  0  0  0
   -4.3805   -4.2674    0.0000 H   0  0  0  0  0  0  0  0  0  0  0  0
   -3.1910   -5.5976    0.0000 H   0  0  0  0  0  0  0  0  0  0  0  0
   -1.7846   -5.1460    0.0000 H   0  0  0  0  0  0  0  0  0  0  0  0
   -1.1311   -6.5642    0.0000 H   0  0  0  0  0  0  0  0  0  0  0  0
   -0.2059   -6.8412    0.0000 H   0  0  0  0  0  0  0  0  0  0  0  0
    2.3823   -8.7076    0.0000 H   0  0  0  0  0  0  0  0  0  0  0  0
    2.9062   -7.3264    0.0000 H   0  0  0  0  0  0  0  0  0  0  0  0
   -1.0618   -9.1514    0.0000 H   0  0  0  0  0  0  0  0  0  0  0  0
   -0.6371   -7.4182    0.0000 H   0  0  0  0  0  0  0  0  0  0  0  0
    1.4632  -11.2968    0.0000 H   0  0  0  0  0  0  0  0  0  0  0  0
    2.0960   -9.6283    0.0000 H   0  0  0  0  0  0  0  0  0  0  0  0
   -1.8820  -10.6074    0.0000 H   0  0  0  0  0  0  0  0  0  0  0  0
   -0.8904  -14.9968    0.0000 H   0  0  0  0  0  0  0  0  0  0  0  0
   -2.6533  -13.0883    0.0000 H   0  0  0  0  0  0  0  0  0  0  0  0
    1.6438  -14.4243    0.0000 H   0  0  0  0  0  0  0  0  0  0  0  0
    2.4151  -11.9434    0.0000 H   0  0  0  0  0  0  0  0  0  0  0  0
    4.4224   -7.6997    0.0000 H   0  0  0  0  0  0  0  0  0  0  0  0
    5.2158   -7.1490    0.0000 H   0  0  0  0  0  0  0  0  0  0  0  0
    8.2887   -6.2892    0.0000 H   0  0  0  0  0  0  0  0  0  0  0  0
    7.5354   -5.0185    0.0000 H   0  0  0  0  0  0  0  0  0  0  0  0
    5.3980   -7.8460    0.0000 H   0  0  0  0  0  0  0  0  0  0  0  0
    8.5381   -9.9411    0.0000 H   0  0  0  0  0  0  0  0  0  0  0  0
    9.7399   -8.6221    0.0000 H   0  0  0  0  0  0  0  0  0  0  0  0
    8.8301   -7.0871    0.0000 H   0  0  0  0  0  0  0  0  0  0  0  0
    7.3943  -10.4541    0.0000 H   0  0  0  0  0  0  0  0  0  0  0  0
    5.6099  -10.4746    0.0000 H   0  0  0  0  0  0  0  0  0  0  0  0
    5.1383   -8.6048    0.0000 H   0  0  0  0  0  0  0  0  0  0  0  0
    8.6869   -4.2277    0.0000 H   0  0  0  0  0  0  0  0  0  0  0  0
    8.9632   -2.9696    0.0000 H   0  0  0  0  0  0  0  0  0  0  0  0
   10.2189   -0.2836    0.0000 H   0  0  0  0  0  0  0  0  0  0  0  0
    8.6174    0.0398    0.0000 H   0  0  0  0  0  0  0  0  0  0  0  0
    9.0274   -4.5062    0.0000 H   0  0  0  0  0  0  0  0  0  0  0  0
   11.4133   -6.0416    0.0000 H   0  0  0  0  0  0  0  0  0  0  0  0
   14.1191   -4.7460    0.0000 H   0  0  0  0  0  0  0  0  0  0  0  0
   14.3499   -1.7549    0.0000 H   0  0  0  0  0  0  0  0  0  0  0  0
   11.8750   -0.0594    0.0000 H   0  0  0  0  0  0  0  0  0  0  0  0
    8.6440    1.6010    0.0000 H   0  0  0  0  0  0  0  0  0  0  0  0
    5.1323    4.5440    0.0000 H   0  0  0  0  0  0  0  0  0  0  0  0
    6.3479    4.0603    0.0000 H   0  0  0  0  0  0  0  0  0  0  0  0
    3.4622    5.0176    0.0000 H   0  0  0  0  0  0  0  0  0  0  0  0
    4.5920    4.8577    0.0000 H   0  0  0  0  0  0  0  0  0  0  0  0
    1.4021    4.8170    0.0000 H   0  0  0  0  0  0  0  0  0  0  0  0
    2.8544    5.0493    0.0000 H   0  0  0  0  0  0  0  0  0  0  0  0
    0.3007    4.6588    0.0000 H   0  0  0  0  0  0  0  0  0  0  0  0
    8.7161    3.6957    0.0000 H   0  0  0  0  0  0  0  0  0  0  0  0
    9.3497    2.0276    0.0000 H   0  0  0  0  0  0  0  0  0  0  0  0
    8.3016    0.9867    0.0000 H   0  0  0  0  0  0  0  0  0  0  0  0
    9.4199    3.1588    0.0000 H   0  0  0  0  0  0  0  0  0  0  0  0
    7.0452    5.5799    0.0000 H   0  0  0  0  0  0  0  0  0  0  0  0
    7.6786    8.3269    0.0000 H   0  0  0  0  0  0  0  0  0  0  0  0
    6.9256    6.5516    0.0000 H   0  0  0  0  0  0  0  0  0  0  0  0
    9.3745    9.3824    0.0000 H   0  0  0  0  0  0  0  0  0  0  0  0
   10.7378    3.4564    0.0000 H   0  0  0  0  0  0  0  0  0  0  0  0
   11.8278    6.6933    0.0000 H   0  0  0  0  0  0  0  0  0  0  0  0
   15.1412    6.6989    0.0000 H   0  0  0  0  0  0  0  0  0  0  0  0
   14.5460    5.0167    0.0000 H   0  0  0  0  0  0  0  0  0  0  0  0
   10.8439    7.5842    0.0000 H   0  0  0  0  0  0  0  0  0  0  0  0
   10.5786   10.4090    0.0000 H   0  0  0  0  0  0  0  0  0  0  0  0
   14.1718   13.1181    0.0000 H   0  0  0  0  0  0  0  0  0  0  0  0
   15.7359   11.0436    0.0000 H   0  0  0  0  0  0  0  0  0  0  0  0
   16.1023    8.0661    0.0000 H   0  0  0  0  0  0  0  0  0  0  0  0
  1  2  1  0
  2  3  1  0
  3  4  1  0
  4  5  2  0
  4  6  1  0
  6  7  1  0
  7  8  1  0
  8  9  1  0
  9 10  1  0
 10 11  1  0
 11 12  1  0
 12 13  2  3
 12 14  1  0
  7 15  1  0
 15 16  2  0
 15 17  1  0
 17 18  1  0
 18 19  1  0
 19 20  1  0
 20 21  1  0
 21 22  1  0
 22 23  1  0
 18 24  1  0
 24 25  2  0
 24 26  1  0
 26 27  1  0
 27 28  1  0
 28 29  1  0
 29 30  2  0
 30 31  1  0
 30 32  1  0
 32 33  1  0
 32 34  2  0
 34 35  1  0
 34 36  1  0
 36 37  1  0
 36 38  2  0
 38 39  1  0
 27 40  1  0
 40 41  2  0
 40 42  1  0
 43 42  1  1
 43 44  1  0
 44 45  1  0
 45 46  1  0
 46 47  1  0
 43 48  1  0
 43 49  1  0
 49 50  2  0
 49 51  1  0
 51 52  1  0
 52 53  1  0
 53 54  1  0
 54 55  1  0
 55 56  1  0
 56 57  1  0
 57 58  2  3
 57 59  1  0
 52 60  1  0
 60 61  2  0
 60 62  1  0
 62 63  1  0
 63 64  1  0
 64 65  1  0
 65 66  1  0
 65 67  1  0
 63 68  1  0
 68 69  2  0
 68 70  1  0
 70 71  1  0
 71 72  1  0
 72 73  1  0
 73 74  2  0
 74 75  1  0
 75 76  2  0
 76 77  1  0
 77 78  2  0
 71 79  1  0
 79 80  2  0
 79 81  1  0
 81 82  1  0
 82 83  1  0
 83 84  1  0
 84 85  1  0
 85 86  1  0
 82 87  1  0
 82 88  1  1
 88 89  2  0
 88 90  1  0
 90 91  1  0
 91 92  1  0
 92 93  1  0
 91 94  1  0
 94 95  2  0
 94 96  1  0
 96 97  1  0
 97 98  1  0
 98 99  1  0
 99100  2  0
100101  1  0
101102  2  0
102103  1  0
102104  1  0
104105  2  0
 97106  1  0
106107  2  0
106108  1  0
 38 29  1  0
 78 73  1  0
105 99  1  0
 47 86  2  0
  1109  1  0
  1110  1  0
  2111  1  0
  2112  1  0
  3113  1  0
  3114  1  0
  6115  1  0
  7116  1  1
  8117  1  0
  8118  1  0
  9119  1  0
  9120  1  0
 10121  1  0
 10122  1  0
 11123  1  0
 13124  1  0
 13125  1  0
 14126  1  0
 14127  1  0
 17128  1  0
 18129  1  6
 19130  1  0
 19131  1  0
 20132  1  0
 20133  1  0
 21134  1  0
 21135  1  0
 22136  1  0
 22137  1  0
 23138  1  0
 23139  1  0
 23140  1  0
 26141  1  0
 27142  1  1
 28143  1  0
 28144  1  0
 42145  1  0
 44146  1  0
 44147  1  0
 45148  1  0
 45149  1  0
 46150  1  0
 46151  1  0
 47152  1  0
 48153  1  0
 48154  1  0
 48155  1  0
 51156  1  0
 52157  1  6
 53158  1  0
 53159  1  0
 54160  1  0
 54161  1  0
 55162  1  0
 55163  1  0
 56164  1  0
 58165  1  0
 58166  1  0
 59167  1  0
 59168  1  0
 62169  1  0
 63170  1  6
 64171  1  0
 64172  1  0
 65173  1  0
 66174  1  0
 66175  1  0
 66176  1  0
 67177  1  0
 67178  1  0
 67179  1  0
 70180  1  0
 71181  1  6
 72182  1  0
 72183  1  0
 74184  1  0
 75185  1  0
 76186  1  0
 77187  1  0
 78188  1  0
 81189  1  0
 83190  1  0
 83191  1  0
 84192  1  0
 84193  1  0
 85194  1  0
 85195  1  0
 86196  1  0
 87197  1  0
 87198  1  0
 87199  1  0
 90200  1  0
 91201  1  1
 92202  1  0
 92203  1  0
 93204  1  0
 96205  1  0
 97206  1  1
 98207  1  0
 98208  1  0
100209  1  0
101210  1  0
103211  1  0
104212  1  0
105213  1  0
M  CHG  4  13   1  23   1  58   1 108  -1
M  END
