
     RDKit          2D

430436  0  0  0  0  0  0  0  0999 V2000
   30.2301   -7.5230    0.0000 C   0  0  0  0  0  0  0  0  0  0  0  0
   31.6309   -6.9865    0.0000 N   0  0  0  0  0  0  0  0  0  0  0  0
   32.7959   -7.9314    0.0000 C   0  0  0  0  0  0  0  0  0  0  0  0
   32.5601   -9.4127    0.0000 C   0  0  0  0  0  0  0  0  0  0  0  0
   33.7252  -10.3576    0.0000 C   0  0  0  0  0  0  0  0  0  0  0  0
   35.1259   -9.8211    0.0000 C   0  0  0  0  0  0  0  0  0  0  0  0
   35.3617   -8.3397    0.0000 C   0  0  0  0  0  0  0  0  0  0  0  0
   34.1967   -7.3949    0.0000 C   0  0  0  0  0  0  0  0  0  0  0  0
   36.8434   -8.1062    0.0000 C   0  0  0  0  0  0  0  0  0  0  0  0
   37.5234   -9.4432    0.0000 O   0  0  0  0  0  0  0  0  0  0  0  0
   36.4619  -10.5031    0.0000 C   0  0  0  0  0  0  0  0  0  0  0  0
   36.6955  -11.9848    0.0000 O   0  0  0  0  0  0  0  0  0  0  0  0
   38.3414   -8.0288    0.0000 C   0  0  0  0  0  0  0  0  0  0  0  0
   39.0234   -6.6928    0.0000 C   0  0  0  0  0  0  0  0  0  0  0  0
   40.5214   -6.6154    0.0000 C   0  0  0  0  0  0  0  0  0  0  0  0
   41.3374   -7.8740    0.0000 C   0  0  0  0  0  0  0  0  0  0  0  0
   40.6554   -9.2100    0.0000 C   0  0  0  0  0  0  0  0  0  0  0  0
   39.1574   -9.2874    0.0000 C   0  0  0  0  0  0  0  0  0  0  0  0
   42.8354   -7.7966    0.0000 O   0  0  0  0  0  0  0  0  0  0  0  0
   38.2074   -5.4342    0.0000 O   0  0  0  0  0  0  0  0  0  0  0  0
   36.7094   -5.5116    0.0000 C   0  0  0  0  0  0  0  0  0  0  0  0
   36.0274   -6.8476    0.0000 C   0  0  0  0  0  0  0  0  0  0  0  0
   34.8476   -6.3015    0.0000 C   0  0  0  0  0  0  0  0  0  0  0  0
   34.4124   -5.6302    0.0000 C   0  0  0  0  0  0  0  0  0  0  0  0
   34.7762   -4.9177    0.0000 C   0  0  0  0  0  0  0  0  0  0  0  0
   35.5751   -4.8764    0.0000 C   0  0  0  0  0  0  0  0  0  0  0  0
   33.5793   -3.0717    0.0000 O   0  0  0  0  0  0  0  0  0  0  0  0
   29.9944   -9.0044    0.0000 S   0  0  0  0  0  0  0  0  0  0  0  0
   29.0651   -6.5782    0.0000 N   0  0  0  0  0  0  0  0  0  0  0  0
   27.6643   -7.1147    0.0000 C   0  0  0  0  0  0  0  0  0  0  0  0
   26.4993   -6.1698    0.0000 C   0  0  0  0  0  0  0  0  0  0  0  0
   25.0986   -6.7063    0.0000 C   0  0  0  0  0  0  0  0  0  0  0  0
   25.1675   -7.5005    0.0000 O   0  0  0  0  0  0  0  0  0  0  0  0
   23.9335   -5.7615    0.0000 N   0  0  0  0  0  0  0  0  0  0  0  0
   22.5328   -6.2980    0.0000 C   0  0  0  0  0  0  0  0  0  0  0  0
   23.3044   -7.5843    0.0000 C   0  0  0  0  0  0  0  0  0  0  0  0
   24.8042   -7.5592    0.0000 C   0  0  0  0  0  0  0  0  0  0  0  0
   25.5757   -8.8456    0.0000 C   0  0  0  0  0  0  0  0  0  0  0  0
   26.2049   -7.0227    0.0000 C   0  0  0  0  0  0  0  0  0  0  0  0
   21.0330   -6.3230    0.0000 C   0  0  0  0  0  0  0  0  0  0  0  0
   20.6437   -7.7716    0.0000 O   0  0  0  0  0  0  0  0  0  0  0  0
   20.2614   -5.0367    0.0000 N   0  0  0  0  0  0  0  0  0  0  0  0
   18.7616   -5.0617    0.0000 C   0  0  0  0  0  0  0  0  0  0  0  0
   19.0467   -6.5344    0.0000 C   0  0  0  0  0  0  0  0  0  0  0  0
   20.4646   -7.0238    0.0000 C   0  0  0  0  0  0  0  0  0  0  0  0
   20.7497   -8.4965    0.0000 C   0  0  0  0  0  0  0  0  0  0  0  0
   21.9644   -6.9988    0.0000 C   0  0  0  0  0  0  0  0  0  0  0  0
   17.3437   -4.5723    0.0000 C   0  0  0  0  0  0  0  0  0  0  0  0
   16.4825   -5.8005    0.0000 O   0  0  0  0  0  0  0  0  0  0  0  0
   17.0586   -3.0997    0.0000 N   0  0  0  0  0  0  0  0  0  0  0  0
   15.6407   -2.6103    0.0000 C   0  0  0  0  0  0  0  0  0  0  0  0
   15.4049   -4.0916    0.0000 C   0  0  0  0  0  0  0  0  0  0  0  0
   16.5699   -5.0365    0.0000 C   0  0  0  0  0  0  0  0  0  0  0  0
   14.6767   -5.4030    0.0000 C   0  0  0  0  0  0  0  0  0  0  0  0
   15.4483   -6.6893    0.0000 C   0  0  0  0  0  0  0  0  0  0  0  0
   14.4756   -1.6654    0.0000 C   0  0  0  0  0  0  0  0  0  0  0  0
   13.2463   -2.5249    0.0000 O   0  0  0  0  0  0  0  0  0  0  0  0
   14.7114   -0.1841    0.0000 N   0  0  0  0  0  0  0  0  0  0  0  0
   13.5464    0.7608    0.0000 C   0  0  0  0  0  0  0  0  0  0  0  0
   12.8182   -0.5506    0.0000 C   0  0  0  0  0  0  0  0  0  0  0  0
   13.5898   -1.8369    0.0000 C   0  0  0  0  0  0  0  0  0  0  0  0
   12.8616   -3.1483    0.0000 C   0  0  0  0  0  0  0  0  0  0  0  0
   14.7548   -2.7818    0.0000 C   0  0  0  0  0  0  0  0  0  0  0  0
   12.7748    2.0471    0.0000 C   0  0  0  0  0  0  0  0  0  0  0  0
   11.3837    1.4861    0.0000 O   0  0  0  0  0  0  0  0  0  0  0  0
   13.5030    3.3585    0.0000 N   0  0  0  0  0  0  0  0  0  0  0  0
   12.7314    4.6448    0.0000 C   0  0  0  0  0  0  0  0  0  0  0  0
   11.8763    3.4125    0.0000 C   0  0  0  0  0  0  0  0  0  0  0  0
   10.6959    2.4869    0.0000 C   0  0  0  0  0  0  0  0  0  0  0  0
    9.2951    1.9504    0.0000 C   0  0  0  0  0  0  0  0  0  0  0  0
    7.7984    1.8506    0.0000 C   0  0  0  0  0  0  0  0  0  0  0  0
   14.2212    4.8191    0.0000 C   0  0  0  0  0  0  0  0  0  0  0  0
   13.1853    6.0745    0.0000 C   0  0  0  0  0  0  0  0  0  0  0  0
   14.6667    5.8388    0.0000 O   0  0  0  0  0  0  0  0  0  0  0  0
   13.1977    7.5745    0.0000 N   0  0  0  0  0  0  0  0  0  0  0  0
   12.7673    9.0114    0.0000 C   0  0  0  0  0  0  0  0  0  0  0  0
   13.5600   10.2849    0.0000 C   0  0  0  0  0  0  0  0  0  0  0  0
   15.0592   10.2351    0.0000 C   0  0  0  0  0  0  0  0  0  0  0  0
   15.8518   11.5086    0.0000 C   0  0  0  0  0  0  0  0  0  0  0  0
   17.3510   11.4589    0.0000 N   0  0  0  0  0  0  0  0  0  0  0  0
   15.1453   12.8318    0.0000 O   0  0  0  0  0  0  0  0  0  0  0  0
   11.9326   10.2577    0.0000 C   0  0  0  0  0  0  0  0  0  0  0  0
   13.0405   11.2689    0.0000 O   0  0  0  0  0  0  0  0  0  0  0  0
   10.7676   11.2025    0.0000 N   0  0  0  0  0  0  0  0  0  0  0  0
    9.3758   11.7620    0.0000 C   0  0  0  0  0  0  0  0  0  0  0  0
    8.8744   13.1757    0.0000 C   0  0  0  0  0  0  0  0  0  0  0  0
    7.8810   11.8864    0.0000 C   0  0  0  0  0  0  0  0  0  0  0  0
    7.7812   13.3831    0.0000 O   0  0  0  0  0  0  0  0  0  0  0  0
    6.4159   11.5647    0.0000 N   0  0  0  0  0  0  0  0  0  0  0  0
    5.1107   10.8254    0.0000 C   0  0  0  0  0  0  0  0  0  0  0  0
    3.6928   11.3148    0.0000 C   0  0  0  0  0  0  0  0  0  0  0  0
    3.5893   12.8112    0.0000 C   0  0  0  0  0  0  0  0  0  0  0  0
    4.0815    9.7342    0.0000 C   0  0  0  0  0  0  0  0  0  0  0  0
    3.0926   10.8622    0.0000 O   0  0  0  0  0  0  0  0  0  0  0  0
    3.4195    8.3882    0.0000 N   0  0  0  0  0  0  0  0  0  0  0  0
    3.1838    6.9068    0.0000 C   0  0  0  0  0  0  0  0  0  0  0  0
    3.3951    5.4218    0.0000 C   0  0  0  0  0  0  0  0  0  0  0  0
    4.0348    4.0650    0.0000 C   0  0  0  0  0  0  0  0  0  0  0  0
    5.0460    2.9571    0.0000 C   0  0  0  0  0  0  0  0  0  0  0  0
    6.3388    2.1964    0.0000 C   0  0  0  0  0  0  0  0  0  0  0  0
    2.9480    5.4255    0.0000 C   0  0  0  0  0  0  0  0  0  0  0  0
    2.2861    4.0794    0.0000 C   0  0  0  0  0  0  0  0  0  0  0  0
    1.2568    2.9883    0.0000 C   0  0  0  0  0  0  0  0  0  0  0  0
   -0.0484    2.2490    0.0000 C   0  0  0  0  0  0  0  0  0  0  0  0
    2.9724    8.3919    0.0000 C   0  0  0  0  0  0  0  0  0  0  0  0
    4.4094    8.8222    0.0000 O   0  0  0  0  0  0  0  0  0  0  0  0
    2.3327    9.7486    0.0000 N   0  0  0  0  0  0  0  0  0  0  0  0
    1.3216   10.8566    0.0000 C   0  0  0  0  0  0  0  0  0  0  0  0
    1.4832   12.3478    0.0000 C   0  0  0  0  0  0  0  0  0  0  0  0
    2.7714   13.1163    0.0000 C   0  0  0  0  0  0  0  0  0  0  0  0
    0.0287   11.6172    0.0000 C   0  0  0  0  0  0  0  0  0  0  0  0
    0.5882   13.0090    0.0000 O   0  0  0  0  0  0  0  0  0  0  0  0
   -1.4309   11.9630    0.0000 N   0  0  0  0  0  0  0  0  0  0  0  0
   -2.9275   11.8633    0.0000 C   0  0  0  0  0  0  0  0  0  0  0  0
   -3.9927   12.9194    0.0000 C   0  0  0  0  0  0  0  0  0  0  0  0
   -3.4366   14.3125    0.0000 C   0  0  0  0  0  0  0  0  0  0  0  0
   -5.3548   13.5476    0.0000 C   0  0  0  0  0  0  0  0  0  0  0  0
   -5.4919   15.0413    0.0000 C   0  0  0  0  0  0  0  0  0  0  0  0
   -4.3283   11.3268    0.0000 C   0  0  0  0  0  0  0  0  0  0  0  0
   -5.2212   12.5321    0.0000 O   0  0  0  0  0  0  0  0  0  0  0  0
   -5.5087   10.4012    0.0000 N   0  0  0  0  0  0  0  0  0  0  0  0
   -6.3639    9.1688    0.0000 C   0  0  0  0  0  0  0  0  0  0  0  0
   -7.8537    8.9946    0.0000 C   0  0  0  0  0  0  0  0  0  0  0  0
   -8.7495   10.1977    0.0000 C   0  0  0  0  0  0  0  0  0  0  0  0
  -10.2394   10.0234    0.0000 C   0  0  0  0  0  0  0  0  0  0  0  0
   -9.1799   11.6346    0.0000 C   0  0  0  0  0  0  0  0  0  0  0  0
   -6.8178    7.7392    0.0000 C   0  0  0  0  0  0  0  0  0  0  0  0
   -8.2991    7.9749    0.0000 O   0  0  0  0  0  0  0  0  0  0  0  0
   -6.8301    6.2392    0.0000 N   0  0  0  0  0  0  0  0  0  0  0  0
   -6.3998    4.8023    0.0000 C   0  0  0  0  0  0  0  0  0  0  0  0
   -5.5650    3.5560    0.0000 C   0  0  0  0  0  0  0  0  0  0  0  0
   -4.4000    2.6111    0.0000 C   0  0  0  0  0  0  0  0  0  0  0  0
   -3.0083    2.0517    0.0000 C   0  0  0  0  0  0  0  0  0  0  0  0
   -1.5134    1.9273    0.0000 C   0  0  0  0  0  0  0  0  0  0  0  0
   -7.8866    5.0010    0.0000 C   0  0  0  0  0  0  0  0  0  0  0  0
   -7.1925    3.5288    0.0000 C   0  0  0  0  0  0  0  0  0  0  0  0
   -6.8271    2.0740    0.0000 O   0  0  0  0  0  0  0  0  0  0  0  0
   -8.6916    3.5785    0.0000 N   0  0  0  0  0  0  0  0  0  0  0  0
   -9.4843    2.3051    0.0000 C   0  0  0  0  0  0  0  0  0  0  0  0
   -9.7936    0.8373    0.0000 C   0  0  0  0  0  0  0  0  0  0  0  0
  -11.2194    0.3713    0.0000 C   0  0  0  0  0  0  0  0  0  0  0  0
  -11.5287   -1.0964    0.0000 C   0  0  0  0  0  0  0  0  0  0  0  0
  -12.7185    0.4210    0.0000 C   0  0  0  0  0  0  0  0  0  0  0  0
  -10.9835    2.3548    0.0000 C   0  0  0  0  0  0  0  0  0  0  0  0
  -11.6900    3.6780    0.0000 O   0  0  0  0  0  0  0  0  0  0  0  0
  -11.7761    1.0814    0.0000 N   0  0  0  0  0  0  0  0  0  0  0  0
  -13.2753    1.1311    0.0000 C   0  0  0  0  0  0  0  0  0  0  0  0
  -14.6670    1.6906    0.0000 C   0  0  0  0  0  0  0  0  0  0  0  0
  -14.8784    3.1756    0.0000 C   0  0  0  0  0  0  0  0  0  0  0  0
  -16.2702    3.7351    0.0000 C   0  0  0  0  0  0  0  0  0  0  0  0
  -16.4815    5.2201    0.0000 O   0  0  0  0  0  0  0  0  0  0  0  0
  -17.4506    2.8095    0.0000 O   0  0  0  0  0  0  0  0  0  0  0  0
  -14.0680   -0.1424    0.0000 C   0  0  0  0  0  0  0  0  0  0  0  0
  -13.5280   -1.5418    0.0000 O   0  0  0  0  0  0  0  0  0  0  0  0
  -15.5671   -0.0926    0.0000 N   0  0  0  0  0  0  0  0  0  0  0  0
  -16.3598   -1.3661    0.0000 C   0  0  0  0  0  0  0  0  0  0  0  0
  -16.6691   -2.8338    0.0000 C   0  0  0  0  0  0  0  0  0  0  0  0
  -18.0949   -3.2999    0.0000 C   0  0  0  0  0  0  0  0  0  0  0  0
  -18.4042   -4.7676    0.0000 C   0  0  0  0  0  0  0  0  0  0  0  0
  -19.7625   -5.4040    0.0000 N   0  0  0  0  0  0  0  0  0  0  0  0
  -17.2877   -5.7694    0.0000 O   0  0  0  0  0  0  0  0  0  0  0  0
  -17.8590   -1.3163    0.0000 C   0  0  0  0  0  0  0  0  0  0  0  0
  -18.5655    0.0068    0.0000 O   0  0  0  0  0  0  0  0  0  0  0  0
  -18.6516   -2.5898    0.0000 N   0  0  0  0  0  0  0  0  0  0  0  0
  -20.1508   -2.5401    0.0000 C   0  0  0  0  0  0  0  0  0  0  0  0
  -21.5425   -1.9806    0.0000 C   0  0  0  0  0  0  0  0  0  0  0  0
  -21.7539   -0.4955    0.0000 C   0  0  0  0  0  0  0  0  0  0  0  0
  -23.1457    0.0639    0.0000 C   0  0  0  0  0  0  0  0  0  0  0  0
  -23.3570    1.5490    0.0000 N   0  0  0  0  0  0  0  0  0  0  0  0
  -24.3261   -0.8616    0.0000 O   0  0  0  0  0  0  0  0  0  0  0  0
  -20.9435   -3.8135    0.0000 C   0  0  0  0  0  0  0  0  0  0  0  0
  -20.4035   -5.2130    0.0000 O   0  0  0  0  0  0  0  0  0  0  0  0
  -22.4426   -3.7638    0.0000 N   0  0  0  0  0  0  0  0  0  0  0  0
  -23.2353   -5.0372    0.0000 C   0  0  0  0  0  0  0  0  0  0  0  0
  -23.5446   -6.5050    0.0000 C   0  0  0  0  0  0  0  0  0  0  0  0
  -24.9029   -7.1413    0.0000 C   0  0  0  0  0  0  0  0  0  0  0  0
  -24.7345   -4.9875    0.0000 C   0  0  0  0  0  0  0  0  0  0  0  0
  -25.4410   -3.6643    0.0000 O   0  0  0  0  0  0  0  0  0  0  0  0
  -25.5271   -6.2610    0.0000 N   0  0  0  0  0  0  0  0  0  0  0  0
  -27.0263   -6.2112    0.0000 C   0  0  0  0  0  0  0  0  0  0  0  0
  -28.4180   -5.6518    0.0000 C   0  0  0  0  0  0  0  0  0  0  0  0
  -28.6294   -4.1667    0.0000 C   0  0  0  0  0  0  0  0  0  0  0  0
  -30.0212   -3.6072    0.0000 C   0  0  0  0  0  0  0  0  0  0  0  0
  -30.2325   -2.1222    0.0000 N   0  0  0  0  0  0  0  0  0  0  0  0
  -31.6243   -1.5627    0.0000 C   0  0  0  0  0  0  0  0  0  0  0  0
  -31.8356   -0.0777    0.0000 N   0  0  0  0  0  0  0  0  0  0  0  0
  -32.8047   -2.4883    0.0000 N   0  0  0  0  0  0  0  0  0  0  0  0
  -27.8190   -7.4847    0.0000 C   0  0  0  0  0  0  0  0  0  0  0  0
  -27.1124   -8.8079    0.0000 O   0  0  0  0  0  0  0  0  0  0  0  0
  -29.3181   -7.4350    0.0000 N   0  0  0  0  0  0  0  0  0  0  0  0
  -30.1108   -8.7084    0.0000 C   0  0  0  0  0  0  0  0  0  0  0  0
  -30.4201  -10.1762    0.0000 C   0  0  0  0  0  0  0  0  0  0  0  0
  -31.8459  -10.6422    0.0000 C   0  0  0  0  0  0  0  0  0  0  0  0
  -32.1552  -12.1100    0.0000 C   0  0  0  0  0  0  0  0  0  0  0  0
  -33.5135  -12.7463    0.0000 O   0  0  0  0  0  0  0  0  0  0  0  0
  -31.0387  -13.1117    0.0000 O   0  0  0  0  0  0  0  0  0  0  0  0
  -31.6100   -8.6587    0.0000 C   0  0  0  0  0  0  0  0  0  0  0  0
  -32.3165   -7.3355    0.0000 O   0  0  0  0  0  0  0  0  0  0  0  0
  -32.4026   -9.9321    0.0000 N   0  0  0  0  0  0  0  0  0  0  0  0
  -33.9018   -9.8824    0.0000 C   0  0  0  0  0  0  0  0  0  0  0  0
  -35.2936   -9.3229    0.0000 C   0  0  0  0  0  0  0  0  0  0  0  0
  -35.5049   -7.8379    0.0000 C   0  0  0  0  0  0  0  0  0  0  0  0
  -36.8967   -7.2784    0.0000 C   0  0  0  0  0  0  0  0  0  0  0  0
  -37.1080   -5.7934    0.0000 N   0  0  0  0  0  0  0  0  0  0  0  0
  -38.4998   -5.2339    0.0000 C   0  0  0  0  0  0  0  0  0  0  0  0
  -38.7111   -3.7489    0.0000 N   0  0  0  0  0  0  0  0  0  0  0  0
  -39.6802   -6.1594    0.0000 N   0  0  0  0  0  0  0  0  0  0  0  0
  -34.6945  -11.1559    0.0000 C   0  0  0  0  0  0  0  0  0  0  0  0
  -36.1885  -11.2892    0.0000 O   0  0  0  0  0  0  0  0  0  0  0  0
  -34.1545  -12.5553    0.0000 O   0  0  0  0  0  0  0  0  0  0  0  0
   31.6843   -5.4875    0.0000 H   0  0  0  0  0  0  0  0  0  0  0  0
   31.1594   -9.9492    0.0000 H   0  0  0  0  0  0  0  0  0  0  0  0
   33.4894  -11.8389    0.0000 H   0  0  0  0  0  0  0  0  0  0  0  0
   34.0670   -5.9005    0.0000 H   0  0  0  0  0  0  0  0  0  0  0  0
   41.2034   -5.2794    0.0000 H   0  0  0  0  0  0  0  0  0  0  0  0
   41.4714  -10.4686    0.0000 H   0  0  0  0  0  0  0  0  0  0  0  0
   38.4754  -10.6234    0.0000 H   0  0  0  0  0  0  0  0  0  0  0  0
   43.6514   -9.0553    0.0000 H   0  0  0  0  0  0  0  0  0  0  0  0
   33.8474   -8.2609    0.0000 H   0  0  0  0  0  0  0  0  0  0  0  0
   32.2171   -5.5605    0.0000 H   0  0  0  0  0  0  0  0  0  0  0  0
   36.5753   -2.9169    0.0000 H   0  0  0  0  0  0  0  0  0  0  0  0
   34.2613   -1.7357    0.0000 H   0  0  0  0  0  0  0  0  0  0  0  0
   29.3009   -5.0968    0.0000 H   0  0  0  0  0  0  0  0  0  0  0  0
   28.4359   -8.4010    0.0000 H   0  0  0  0  0  0  0  0  0  0  0  0
   26.8031   -8.3428    0.0000 H   0  0  0  0  0  0  0  0  0  0  0  0
   27.5038   -5.0558    0.0000 H   0  0  0  0  0  0  0  0  0  0  0  0
   25.8903   -4.7990    0.0000 H   0  0  0  0  0  0  0  0  0  0  0  0
   24.1693   -4.2801    0.0000 H   0  0  0  0  0  0  0  0  0  0  0  0
   22.4293   -4.8015    0.0000 H   0  0  0  0  0  0  0  0  0  0  0  0
   23.4078   -9.0807    0.0000 H   0  0  0  0  0  0  0  0  0  0  0  0
   22.0750   -8.4438    0.0000 H   0  0  0  0  0  0  0  0  0  0  0  0
   24.8839   -6.0614    0.0000 H   0  0  0  0  0  0  0  0  0  0  0  0
   27.0370   -9.1842    0.0000 H   0  0  0  0  0  0  0  0  0  0  0  0
   25.8609  -10.3182    0.0000 H   0  0  0  0  0  0  0  0  0  0  0  0
   24.2508   -9.5488    0.0000 H   0  0  0  0  0  0  0  0  0  0  0  0
   27.3699   -7.9676    0.0000 H   0  0  0  0  0  0  0  0  0  0  0  0
   27.4491   -6.1849    0.0000 H   0  0  0  0  0  0  0  0  0  0  0  0
   25.2823   -5.8401    0.0000 H   0  0  0  0  0  0  0  0  0  0  0  0
   20.9896   -3.7253    0.0000 H   0  0  0  0  0  0  0  0  0  0  0  0
   18.9974   -3.5804    0.0000 H   0  0  0  0  0  0  0  0  0  0  0  0
   18.6321   -7.9760    0.0000 H   0  0  0  0  0  0  0  0  0  0  0  0
   17.5469   -6.5595    0.0000 H   0  0  0  0  0  0  0  0  0  0  0  0
   21.0518   -5.6435    0.0000 H   0  0  0  0  0  0  0  0  0  0  0  0
   22.0071   -9.3144    0.0000 H   0  0  0  0  0  0  0  0  0  0  0  0
   20.5140   -9.9778    0.0000 H   0  0  0  0  0  0  0  0  0  0  0  0
   19.2642   -8.7042    0.0000 H   0  0  0  0  0  0  0  0  0  0  0  0
   22.7360   -8.2851    0.0000 H   0  0  0  0  0  0  0  0  0  0  0  0
   23.4534   -6.8172    0.0000 H   0  0  0  0  0  0  0  0  0  0  0  0
   21.5019   -5.5718    0.0000 H   0  0  0  0  0  0  0  0  0  0  0  0
   18.1914   -2.1164    0.0000 H   0  0  0  0  0  0  0  0  0  0  0  0
   16.5233   -1.3974    0.0000 H   0  0  0  0  0  0  0  0  0  0  0  0
   13.9107   -3.9598    0.0000 H   0  0  0  0  0  0  0  0  0  0  0  0
   16.5165   -6.5355    0.0000 H   0  0  0  0  0  0  0  0  0  0  0  0
   17.9878   -5.5259    0.0000 H   0  0  0  0  0  0  0  0  0  0  0  0
   17.6228   -3.9742    0.0000 H   0  0  0  0  0  0  0  0  0  0  0  0
   13.5439   -6.3862    0.0000 H   0  0  0  0  0  0  0  0  0  0  0  0
   13.4052   -4.6072    0.0000 H   0  0  0  0  0  0  0  0  0  0  0  0
   14.7201   -8.0007    0.0000 H   0  0  0  0  0  0  0  0  0  0  0  0
   16.6133   -7.6342    0.0000 H   0  0  0  0  0  0  0  0  0  0  0  0
   16.8583   -6.1775    0.0000 H   0  0  0  0  0  0  0  0  0  0  0  0
   16.1122    0.3524    0.0000 H   0  0  0  0  0  0  0  0  0  0  0  0
   14.6792    1.7440    0.0000 H   0  0  0  0  0  0  0  0  0  0  0  0
   11.5740   -1.3884    0.0000 H   0  0  0  0  0  0  0  0  0  0  0  0
   11.6532    0.3943    0.0000 H   0  0  0  0  0  0  0  0  0  0  0  0
   14.9268   -1.1570    0.0000 H   0  0  0  0  0  0  0  0  0  0  0  0
   13.1208   -4.6257    0.0000 H   0  0  0  0  0  0  0  0  0  0  0  0
   11.7288   -4.1315    0.0000 H   0  0  0  0  0  0  0  0  0  0  0  0
   11.5901   -2.3525    0.0000 H   0  0  0  0  0  0  0  0  0  0  0  0
   14.5190   -4.2631    0.0000 H   0  0  0  0  0  0  0  0  0  0  0  0
   16.0122   -3.5997    0.0000 H   0  0  0  0  0  0  0  0  0  0  0  0
   15.3177   -1.3914    0.0000 H   0  0  0  0  0  0  0  0  0  0  0  0
   14.9947    3.2006    0.0000 H   0  0  0  0  0  0  0  0  0  0  0  0
   13.2415    2.7910    0.0000 H   0  0  0  0  0  0  0  0  0  0  0  0
   12.0542    1.9231    0.0000 H   0  0  0  0  0  0  0  0  0  0  0  0
   11.5429    1.2490    0.0000 H   0  0  0  0  0  0  0  0  0  0  0  0
   10.7919    0.9900    0.0000 H   0  0  0  0  0  0  0  0  0  0  0  0
   10.2235    0.7723    0.0000 H   0  0  0  0  0  0  0  0  0  0  0  0
    8.7705    0.5452    0.0000 H   0  0  0  0  0  0  0  0  0  0  0  0
    7.6740    0.3558    0.0000 H   0  0  0  0  0  0  0  0  0  0  0  0
   15.2571    3.7342    0.0000 H   0  0  0  0  0  0  0  0  0  0  0  0
   15.5616    5.4924    0.0000 H   0  0  0  0  0  0  0  0  0  0  0  0
   14.1514    6.3175    0.0000 H   0  0  0  0  0  0  0  0  0  0  0  0
   14.6827    7.7858    0.0000 H   0  0  0  0  0  0  0  0  0  0  0  0
   14.2188    8.6329    0.0000 H   0  0  0  0  0  0  0  0  0  0  0  0
   13.8693   11.7526    0.0000 H   0  0  0  0  0  0  0  0  0  0  0  0
   12.3450   11.1645    0.0000 H   0  0  0  0  0  0  0  0  0  0  0  0
   16.4509    9.6757    0.0000 H   0  0  0  0  0  0  0  0  0  0  0  0
   14.9311    8.7406    0.0000 H   0  0  0  0  0  0  0  0  0  0  0  0
   18.1437   12.7323    0.0000 H   0  0  0  0  0  0  0  0  0  0  0  0
   18.0575   10.1357    0.0000 H   0  0  0  0  0  0  0  0  0  0  0  0
   11.5282   12.4954    0.0000 H   0  0  0  0  0  0  0  0  0  0  0  0
   10.4582   12.8005    0.0000 H   0  0  0  0  0  0  0  0  0  0  0  0
    9.8480   14.3168    0.0000 H   0  0  0  0  0  0  0  0  0  0  0  0
    7.9197   14.3327    0.0000 H   0  0  0  0  0  0  0  0  0  0  0  0
    7.4291   12.7742    0.0000 H   0  0  0  0  0  0  0  0  0  0  0  0
    5.8794   12.9655    0.0000 H   0  0  0  0  0  0  0  0  0  0  0  0
    5.1568   12.3247    0.0000 H   0  0  0  0  0  0  0  0  0  0  0  0
    2.2012   11.4728    0.0000 H   0  0  0  0  0  0  0  0  0  0  0  0
    2.9417   10.0164    0.0000 H   0  0  0  0  0  0  0  0  0  0  0  0
    1.9898   13.2769    0.0000 H   0  0  0  0  0  0  0  0  0  0  0  0
    3.8207   14.2514    0.0000 H   0  0  0  0  0  0  0  0  0  0  0  0
    4.9075   12.8125    0.0000 H   0  0  0  0  0  0  0  0  0  0  0  0
    1.9899    8.8421    0.0000 H   0  0  0  0  0  0  0  0  0  0  0  0
    2.5679    4.1705    0.0000 H   0  0  0  0  0  0  0  0  0  0  0  0
    1.9546    5.8399    0.0000 H   0  0  0  0  0  0  0  0  0  0  0  0
    3.6131    2.6255    0.0000 H   0  0  0  0  0  0  0  0  0  0  0  0
    2.6437    3.5041    0.0000 H   0  0  0  0  0  0  0  0  0  0  0  0
    4.8844    1.4658    0.0000 H   0  0  0  0  0  0  0  0  0  0  0  0
    3.7753    2.1599    0.0000 H   0  0  0  0  0  0  0  0  0  0  0  0
    5.7793    0.8047    0.0000 H   0  0  0  0  0  0  0  0  0  0  0  0
    4.3952    5.8199    0.0000 H   0  0  0  0  0  0  0  0  0  0  0  0
    3.7546    4.1608    0.0000 H   0  0  0  0  0  0  0  0  0  0  0  0
    3.6678    3.4956    0.0000 H   0  0  0  0  0  0  0  0  0  0  0  0
    2.6840    2.6332    0.0000 H   0  0  0  0  0  0  0  0  0  0  0  0
    2.5142    2.1703    0.0000 H   0  0  0  0  0  0  0  0  0  0  0  0
    1.3939    1.4946    0.0000 H   0  0  0  0  0  0  0  0  0  0  0  0
    0.4882    0.8482    0.0000 H   0  0  0  0  0  0  0  0  0  0  0  0
    3.0411   11.0708    0.0000 H   0  0  0  0  0  0  0  0  0  0  0  0
    2.6799   11.4929    0.0000 H   0  0  0  0  0  0  0  0  0  0  0  0
    1.1250   13.8045    0.0000 H   0  0  0  0  0  0  0  0  0  0  0  0
    0.0068   12.6132    0.0000 H   0  0  0  0  0  0  0  0  0  0  0  0
    2.8533   14.4648    0.0000 H   0  0  0  0  0  0  0  0  0  0  0  0
    4.3480   13.2464    0.0000 H   0  0  0  0  0  0  0  0  0  0  0  0
    3.0129   11.4551    0.0000 H   0  0  0  0  0  0  0  0  0  0  0  0
   -1.3065   13.4579    0.0000 H   0  0  0  0  0  0  0  0  0  0  0  0
   -2.2355   13.1941    0.0000 H   0  0  0  0  0  0  0  0  0  0  0  0
   -5.1206   11.9306    0.0000 H   0  0  0  0  0  0  0  0  0  0  0  0
   -4.5308   15.5688    0.0000 H   0  0  0  0  0  0  0  0  0  0  0  0
   -2.7554   15.6023    0.0000 H   0  0  0  0  0  0  0  0  0  0  0  0
   -2.1820   13.9125    0.0000 H   0  0  0  0  0  0  0  0  0  0  0  0
   -6.8496   13.6720    0.0000 H   0  0  0  0  0  0  0  0  0  0  0  0
   -5.9109   12.1544    0.0000 H   0  0  0  0  0  0  0  0  0  0  0  0
   -6.8540   15.6695    0.0000 H   0  0  0  0  0  0  0  0  0  0  0  0
   -5.1098   16.4918    0.0000 H   0  0  0  0  0  0  0  0  0  0  0  0
   -4.0114   15.2823    0.0000 H   0  0  0  0  0  0  0  0  0  0  0  0
   -6.5999   11.4305    0.0000 H   0  0  0  0  0  0  0  0  0  0  0  0
   -6.9729   10.5396    0.0000 H   0  0  0  0  0  0  0  0  0  0  0  0
   -9.1020    8.1629    0.0000 H   0  0  0  0  0  0  0  0  0  0  0  0
   -7.7839    7.4962    0.0000 H   0  0  0  0  0  0  0  0  0  0  0  0
   -7.5012   11.0294    0.0000 H   0  0  0  0  0  0  0  0  0  0  0  0
  -11.2752   11.1084    0.0000 H   0  0  0  0  0  0  0  0  0  0  0  0
  -11.5798    9.3501    0.0000 H   0  0  0  0  0  0  0  0  0  0  0  0
   -9.9874    8.5447    0.0000 H   0  0  0  0  0  0  0  0  0  0  0  0
  -10.5864   12.1558    0.0000 H   0  0  0  0  0  0  0  0  0  0  0  0
   -9.0928   13.1321    0.0000 H   0  0  0  0  0  0  0  0  0  0  0  0
   -7.6900   11.8089    0.0000 H   0  0  0  0  0  0  0  0  0  0  0  0
   -8.3152    6.0279    0.0000 H   0  0  0  0  0  0  0  0  0  0  0  0
   -5.9471    2.1055    0.0000 H   0  0  0  0  0  0  0  0  0  0  0  0
   -6.9403    2.9571    0.0000 H   0  0  0  0  0  0  0  0  0  0  0  0
   -4.5207    1.1160    0.0000 H   0  0  0  0  0  0  0  0  0  0  0  0
   -5.5377    1.6335    0.0000 H   0  0  0  0  0  0  0  0  0  0  0  0
   -2.5069    0.6380    0.0000 H   0  0  0  0  0  0  0  0  0  0  0  0
   -3.9560    0.8890    0.0000 H   0  0  0  0  0  0  0  0  0  0  0  0
   -1.4137    0.4306    0.0000 H   0  0  0  0  0  0  0  0  0  0  0  0
   -9.0624    4.0697    0.0000 H   0  0  0  0  0  0  0  0  0  0  0  0
   -9.1210    5.8531    0.0000 H   0  0  0  0  0  0  0  0  0  0  0  0
   -7.7921    6.4980    0.0000 H   0  0  0  0  0  0  0  0  0  0  0  0
   -9.5542    4.8057    0.0000 H   0  0  0  0  0  0  0  0  0  0  0  0
   -8.0925    1.7456    0.0000 H   0  0  0  0  0  0  0  0  0  0  0  0
   -9.4028   -0.6109    0.0000 H   0  0  0  0  0  0  0  0  0  0  0  0
   -8.2944    0.7876    0.0000 H   0  0  0  0  0  0  0  0  0  0  0  0
  -12.1033    1.5832    0.0000 H   0  0  0  0  0  0  0  0  0  0  0  0
  -12.7993   -1.8936    0.0000 H   0  0  0  0  0  0  0  0  0  0  0  0
  -11.3173   -2.5815    0.0000 H   0  0  0  0  0  0  0  0  0  0  0  0
  -10.0467   -1.3286    0.0000 H   0  0  0  0  0  0  0  0  0  0  0  0
  -13.7242    1.5340    0.0000 H   0  0  0  0  0  0  0  0  0  0  0  0
  -13.8825   -0.5251    0.0000 H   0  0  0  0  0  0  0  0  0  0  0  0
  -12.6898   -1.0787    0.0000 H   0  0  0  0  0  0  0  0  0  0  0  0
  -11.4108   -0.3735    0.0000 H   0  0  0  0  0  0  0  0  0  0  0  0
  -12.7894    2.5502    0.0000 H   0  0  0  0  0  0  0  0  0  0  0  0
  -16.1490    1.9227    0.0000 H   0  0  0  0  0  0  0  0  0  0  0  0
  -15.4819    0.4312    0.0000 H   0  0  0  0  0  0  0  0  0  0  0  0
  -14.5691    4.6434    0.0000 H   0  0  0  0  0  0  0  0  0  0  0  0
  -13.3843    3.3090    0.0000 H   0  0  0  0  0  0  0  0  0  0  0  0
  -18.8423    3.3690    0.0000 H   0  0  0  0  0  0  0  0  0  0  0  0
  -16.4297    1.1346    0.0000 H   0  0  0  0  0  0  0  0  0  0  0  0
  -14.9680   -1.9256    0.0000 H   0  0  0  0  0  0  0  0  0  0  0  0
  -16.4577   -4.3189    0.0000 H   0  0  0  0  0  0  0  0  0  0  0  0
  -15.1699   -2.8836    0.0000 H   0  0  0  0  0  0  0  0  0  0  0  0
  -19.5940   -3.2501    0.0000 H   0  0  0  0  0  0  0  0  0  0  0  0
  -18.9788   -2.0880    0.0000 H   0  0  0  0  0  0  0  0  0  0  0  0
  -20.1393   -6.7014    0.0000 H   0  0  0  0  0  0  0  0  0  0  0  0
  -21.1948   -4.5532    0.0000 H   0  0  0  0  0  0  0  0  0  0  0  0
  -18.2863   -4.0446    0.0000 H   0  0  0  0  0  0  0  0  0  0  0  0
  -19.6649   -1.1210    0.0000 H   0  0  0  0  0  0  0  0  0  0  0  0
  -23.0245   -1.7485    0.0000 H   0  0  0  0  0  0  0  0  0  0  0  0
  -22.1978   -3.3299    0.0000 H   0  0  0  0  0  0  0  0  0  0  0  0
  -21.4446    0.9722    0.0000 H   0  0  0  0  0  0  0  0  0  0  0  0
  -20.2598   -0.3622    0.0000 H   0  0  0  0  0  0  0  0  0  0  0  0
  -24.7488    2.1085    0.0000 H   0  0  0  0  0  0  0  0  0  0  0  0
  -22.1766    2.4745    0.0000 H   0  0  0  0  0  0  0  0  0  0  0  0
  -23.3052   -2.5366    0.0000 H   0  0  0  0  0  0  0  0  0  0  0  0
  -21.8435   -5.5967    0.0000 H   0  0  0  0  0  0  0  0  0  0  0  0
  -23.3332   -7.9900    0.0000 H   0  0  0  0  0  0  0  0  0  0  0  0
  -22.0454   -6.5547    0.0000 H   0  0  0  0  0  0  0  0  0  0  0  0
  -25.2797   -8.4388    0.0000 H   0  0  0  0  0  0  0  0  0  0  0  0
  -26.4695   -6.9213    0.0000 H   0  0  0  0  0  0  0  0  0  0  0  0
  -25.8543   -5.7591    0.0000 H   0  0  0  0  0  0  0  0  0  0  0  0
  -24.9872   -7.6604    0.0000 H   0  0  0  0  0  0  0  0  0  0  0  0
  -26.5404   -4.7921    0.0000 H   0  0  0  0  0  0  0  0  0  0  0  0
  -29.9172   -5.6020    0.0000 H   0  0  0  0  0  0  0  0  0  0  0  0
  -29.0733   -7.0011    0.0000 H   0  0  0  0  0  0  0  0  0  0  0  0
  -28.3201   -2.6990    0.0000 H   0  0  0  0  0  0  0  0  0  0  0  0
  -27.1353   -4.0333    0.0000 H   0  0  0  0  0  0  0  0  0  0  0  0
  -31.5203   -3.5575    0.0000 H   0  0  0  0  0  0  0  0  0  0  0  0
  -30.5071   -5.0264    0.0000 H   0  0  0  0  0  0  0  0  0  0  0  0
  -29.0521   -1.1966    0.0000 H   0  0  0  0  0  0  0  0  0  0  0  0
  -33.2274    0.4818    0.0000 H   0  0  0  0  0  0  0  0  0  0  0  0
  -34.1964   -1.9288    0.0000 H   0  0  0  0  0  0  0  0  0  0  0  0
  -32.5933   -3.9733    0.0000 H   0  0  0  0  0  0  0  0  0  0  0  0
  -30.1807   -6.2078    0.0000 H   0  0  0  0  0  0  0  0  0  0  0  0
  -28.7190   -9.2679    0.0000 H   0  0  0  0  0  0  0  0  0  0  0  0
  -30.2087  -11.6612    0.0000 H   0  0  0  0  0  0  0  0  0  0  0  0
  -28.9209  -10.2259    0.0000 H   0  0  0  0  0  0  0  0  0  0  0  0
  -33.3450  -10.5925    0.0000 H   0  0  0  0  0  0  0  0  0  0  0  0
  -32.7298   -9.4303    0.0000 H   0  0  0  0  0  0  0  0  0  0  0  0
  -31.3480  -14.5795    0.0000 H   0  0  0  0  0  0  0  0  0  0  0  0
  -32.0373  -11.3870    0.0000 H   0  0  0  0  0  0  0  0  0  0  0  0
  -33.4159   -8.4633    0.0000 H   0  0  0  0  0  0  0  0  0  0  0  0
  -36.7876   -9.4563    0.0000 H   0  0  0  0  0  0  0  0  0  0  0  0
  -35.7795  -10.7420    0.0000 H   0  0  0  0  0  0  0  0  0  0  0  0
  -35.1956   -6.3701    0.0000 H   0  0  0  0  0  0  0  0  0  0  0  0
  -34.0108   -7.7045    0.0000 H   0  0  0  0  0  0  0  0  0  0  0  0
  -38.3958   -7.2287    0.0000 H   0  0  0  0  0  0  0  0  0  0  0  0
  -37.3826   -8.6975    0.0000 H   0  0  0  0  0  0  0  0  0  0  0  0
  -35.9276   -4.8678    0.0000 H   0  0  0  0  0  0  0  0  0  0  0  0
  -40.1029   -3.1894    0.0000 H   0  0  0  0  0  0  0  0  0  0  0  0
  -41.0719   -5.6000    0.0000 H   0  0  0  0  0  0  0  0  0  0  0  0
  -39.4688   -7.6445    0.0000 H   0  0  0  0  0  0  0  0  0  0  0  0
  -34.7806  -13.7525    0.0000 H   0  0  0  0  0  0  0  0  0  0  0  0
  1  2  1  0
  2  3  1  0
  3  4  2  0
  4  5  1  0
  5  6  2  0
  6  7  1  0
  7  8  2  0
  7  9  1  0
  9 10  1  0
 10 11  1  0
 11 12  2  0
  9 13  1  0
 13 14  1  0
 14 15  2  0
 15 16  1  0
 16 17  2  0
 17 18  1  0
 16 19  1  0
 14 20  1  0
 20 21  1  0
 21 22  2  0
 22 23  1  0
 23 24  2  0
 24 25  1  0
 25 26  2  0
 25 27  1  0
  1 28  2  0
  1 29  1  0
 29 30  1  0
 30 31  1  0
 31 32  1  0
 32 33  2  0
 32 34  1  0
 34 35  1  0
 35 36  1  0
 36 37  1  0
 37 38  1  0
 37 39  1  0
 35 40  1  0
 40 41  2  0
 40 42  1  0
 42 43  1  0
 43 44  1  0
 44 45  1  0
 45 46  1  0
 45 47  1  0
 43 48  1  0
 48 49  2  0
 48 50  1  0
 50 51  1  0
 51 52  1  0
 52 53  1  0
 52 54  1  0
 54 55  1  0
 51 56  1  0
 56 57  2  0
 56 58  1  0
 58 59  1  0
 59 60  1  0
 60 61  1  0
 61 62  1  0
 61 63  1  0
 59 64  1  0
 64 65  2  0
 64 66  1  0
 67 66  1  1
 67 68  1  0
 68 69  1  0
 69 70  1  0
 70 71  1  0
 67 72  1  0
 67 73  1  0
 73 74  2  0
 73 75  1  0
 75 76  1  0
 76 77  1  0
 77 78  1  0
 78 79  1  0
 79 80  1  0
 79 81  2  0
 76 82  1  0
 82 83  2  0
 82 84  1  0
 84 85  1  0
 85 86  1  0
 85 87  1  0
 87 88  2  0
 87 89  1  0
 89 90  1  0
 90 91  1  0
 91 92  1  0
 90 93  1  0
 93 94  2  0
 93 95  1  0
 95 96  1  0
 96 97  1  0
 97 98  1  0
 98 99  1  0
 99100  1  0
 96101  1  0
101102  1  0
102103  1  0
103104  1  0
 96105  1  0
105106  2  0
105107  1  0
107108  1  0
108109  1  0
109110  1  0
108111  1  0
111112  2  0
111113  1  0
113114  1  0
114115  1  0
115116  1  0
115117  1  0
117118  1  0
114119  1  0
119120  2  0
119121  1  0
121122  1  0
122123  1  0
123124  1  0
124125  1  0
124126  1  0
122127  1  0
127128  2  0
127129  1  0
129130  1  0
130131  1  0
131132  1  0
132133  1  0
133134  1  0
130135  1  0
130136  1  6
136137  2  0
136138  1  0
138139  1  0
139140  1  0
140141  1  0
141142  1  0
141143  1  0
139144  1  0
144145  2  0
144146  1  0
146147  1  0
147148  1  0
148149  1  0
149150  1  0
150151  2  0
150152  1  0
147153  1  0
153154  2  0
153155  1  0
155156  1  0
156157  1  0
157158  1  0
158159  1  0
159160  1  0
159161  2  0
156162  1  0
162163  2  0
162164  1  0
164165  1  0
165166  1  0
166167  1  0
167168  1  0
168169  1  0
168170  2  0
165171  1  0
171172  2  0
171173  1  0
173174  1  0
174175  1  0
175176  1  0
174177  1  0
177178  2  0
177179  1  0
179180  1  0
180181  1  0
181182  1  0
182183  1  0
183184  1  0
184185  1  0
185186  2  3
185187  1  0
180188  1  0
188189  2  0
188190  1  0
190191  1  0
191192  1  0
192193  1  0
193194  1  0
194195  2  0
194196  1  0
191197  1  0
197198  2  0
197199  1  0
199200  1  0
200201  1  0
201202  1  0
202203  1  0
203204  1  0
204205  1  0
205206  2  3
205207  1  0
200208  1  0
208209  2  0
208210  1  0
  8  3  1  0
 11  6  1  0
 71100  2  0
 18 13  2  0
104134  2  0
 22  9  1  0
 26 21  1  0
  2211  1  0
  4212  1  0
  5213  1  0
  8214  1  0
 15215  1  0
 17216  1  0
 18217  1  0
 19218  1  0
 23219  1  0
 24220  1  0
 26221  1  0
 27222  1  0
 29223  1  0
 30224  1  0
 30225  1  0
 31226  1  0
 31227  1  0
 34228  1  0
 35229  1  1
 36230  1  0
 36231  1  0
 37232  1  0
 38233  1  0
 38234  1  0
 38235  1  0
 39236  1  0
 39237  1  0
 39238  1  0
 42239  1  0
 43240  1  1
 44241  1  0
 44242  1  0
 45243  1  0
 46244  1  0
 46245  1  0
 46246  1  0
 47247  1  0
 47248  1  0
 47249  1  0
 50250  1  0
 51251  1  1
 52252  1  6
 53253  1  0
 53254  1  0
 53255  1  0
 54256  1  0
 54257  1  0
 55258  1  0
 55259  1  0
 55260  1  0
 58261  1  0
 59262  1  1
 60263  1  0
 60264  1  0
 61265  1  0
 62266  1  0
 62267  1  0
 62268  1  0
 63269  1  0
 63270  1  0
 63271  1  0
 66272  1  0
 68273  1  0
 68274  1  0
 69275  1  0
 69276  1  0
 70277  1  0
 70278  1  0
 71279  1  0
 72280  1  0
 72281  1  0
 72282  1  0
 75283  1  0
 76284  1  6
 77285  1  0
 77286  1  0
 78287  1  0
 78288  1  0
 80289  1  0
 80290  1  0
 84291  1  0
 85292  1  6
 86293  1  0
 86294  1  0
 86295  1  0
 89296  1  0
 90297  1  6
 91298  1  0
 91299  1  0
 92300  1  0
 92301  1  0
 92302  1  0
 95303  1  0
 97304  1  0
 97305  1  0
 98306  1  0
 98307  1  0
 99308  1  0
 99309  1  0
100310  1  0
101311  1  0
101312  1  0
102313  1  0
102314  1  0
103315  1  0
103316  1  0
104317  1  0
107318  1  0
108319  1  6
109320  1  0
109321  1  0
110322  1  0
110323  1  0
110324  1  0
113325  1  0
114326  1  6
115327  1  1
116328  1  0
116329  1  0
116330  1  0
117331  1  0
117332  1  0
118333  1  0
118334  1  0
118335  1  0
121336  1  0
122337  1  6
123338  1  0
123339  1  0
124340  1  0
125341  1  0
125342  1  0
125343  1  0
126344  1  0
126345  1  0
126346  1  0
129347  1  0
131348  1  0
131349  1  0
132350  1  0
132351  1  0
133352  1  0
133353  1  0
134354  1  0
135355  1  0
135356  1  0
135357  1  0
138358  1  0
139359  1  1
140360  1  0
140361  1  0
141362  1  0
142363  1  0
142364  1  0
142365  1  0
143366  1  0
143367  1  0
143368  1  0
146369  1  0
147370  1  6
148371  1  0
148372  1  0
149373  1  0
149374  1  0
152375  1  0
155376  1  0
156377  1  1
157378  1  0
157379  1  0
158380  1  0
158381  1  0
160382  1  0
160383  1  0
164384  1  0
165385  1  6
166386  1  0
166387  1  0
167388  1  0
167389  1  0
169390  1  0
169391  1  0
173392  1  0
174393  1  1
175394  1  0
175395  1  0
176396  1  0
176397  1  0
176398  1  0
179399  1  0
180400  1  6
181401  1  0
181402  1  0
182403  1  0
182404  1  0
183405  1  0
183406  1  0
184407  1  0
186408  1  0
187409  1  0
187410  1  0
190411  1  0
191412  1  1
192413  1  0
192414  1  0
193415  1  0
193416  1  0
196417  1  0
199418  1  0
200419  1  6
201420  1  0
201421  1  0
202422  1  0
202423  1  0
203424  1  0
203425  1  0
204426  1  0
206427  1  0
207428  1  0
207429  1  0
210430  1  0
M  END
