
     RDKit          2D

289294  0  0  0  0  0  0  0  0999 V2000
  -27.9489    0.5056    0.0000 C   0  0  0  0  0  0  0  0  0  0  0  0
  -29.2432   -0.2526    0.0000 N   0  0  0  0  0  0  0  0  0  0  0  0
  -30.5470    0.4891    0.0000 C   0  0  0  0  0  0  0  0  0  0  0  0
  -30.5564    1.9891    0.0000 C   0  0  0  0  0  0  0  0  0  0  0  0
  -31.8602    2.7309    0.0000 C   0  0  0  0  0  0  0  0  0  0  0  0
  -33.1545    1.9727    0.0000 C   0  0  0  0  0  0  0  0  0  0  0  0
  -33.1450    0.4727    0.0000 C   0  0  0  0  0  0  0  0  0  0  0  0
  -31.8412   -0.2691    0.0000 C   0  0  0  0  0  0  0  0  0  0  0  0
  -34.5686    0.0001    0.0000 C   0  0  0  0  0  0  0  0  0  0  0  0
  -35.4579    1.2081    0.0000 O   0  0  0  0  0  0  0  0  0  0  0  0
  -34.5840    2.4271    0.0000 C   0  0  0  0  0  0  0  0  0  0  0  0
  -35.0565    3.8508    0.0000 O   0  0  0  0  0  0  0  0  0  0  0  0
  -36.0338   -0.3210    0.0000 C   0  0  0  0  0  0  0  0  0  0  0  0
  -36.4883   -1.7505    0.0000 C   0  0  0  0  0  0  0  0  0  0  0  0
  -37.9535   -2.0716    0.0000 C   0  0  0  0  0  0  0  0  0  0  0  0
  -38.9643   -0.9633    0.0000 C   0  0  0  0  0  0  0  0  0  0  0  0
  -38.5098    0.4662    0.0000 C   0  0  0  0  0  0  0  0  0  0  0  0
  -37.0445    0.7873    0.0000 C   0  0  0  0  0  0  0  0  0  0  0  0
  -40.4295   -1.2844    0.0000 O   0  0  0  0  0  0  0  0  0  0  0  0
  -35.4776   -2.8588    0.0000 O   0  0  0  0  0  0  0  0  0  0  0  0
  -34.0124   -2.5377    0.0000 C   0  0  0  0  0  0  0  0  0  0  0  0
  -33.5579   -1.1082    0.0000 C   0  0  0  0  0  0  0  0  0  0  0  0
  -32.3047   -1.4542    0.0000 C   0  0  0  0  0  0  0  0  0  0  0  0
  -31.7657   -2.0453    0.0000 C   0  0  0  0  0  0  0  0  0  0  0  0
  -32.0081   -2.8077    0.0000 C   0  0  0  0  0  0  0  0  0  0  0  0
  -32.7895   -2.9789    0.0000 C   0  0  0  0  0  0  0  0  0  0  0  0
  -30.5257   -4.4332    0.0000 O   0  0  0  0  0  0  0  0  0  0  0  0
  -27.9584    2.0055    0.0000 S   0  0  0  0  0  0  0  0  0  0  0  0
  -26.6452   -0.2362    0.0000 N   0  0  0  0  0  0  0  0  0  0  0  0
  -25.3509    0.5220    0.0000 C   0  0  0  0  0  0  0  0  0  0  0  0
  -24.0471   -0.2198    0.0000 C   0  0  0  0  0  0  0  0  0  0  0  0
  -22.7529    0.5384    0.0000 C   0  0  0  0  0  0  0  0  0  0  0  0
  -22.7624    2.0384    0.0000 O   0  0  0  0  0  0  0  0  0  0  0  0
  -21.4491   -0.2033    0.0000 N   0  0  0  0  0  0  0  0  0  0  0  0
  -20.1549    0.5549    0.0000 C   0  0  0  0  0  0  0  0  0  0  0  0
  -19.1980    1.7100    0.0000 C   0  0  0  0  0  0  0  0  0  0  0  0
  -17.7191    1.4589    0.0000 C   0  0  0  0  0  0  0  0  0  0  0  0
  -17.1972    0.0526    0.0000 C   0  0  0  0  0  0  0  0  0  0  0  0
  -15.7184   -0.1985    0.0000 C   0  0  0  0  0  0  0  0  0  0  0  0
  -14.7615    0.9566    0.0000 C   0  0  0  0  0  0  0  0  0  0  0  0
  -15.2834    2.3629    0.0000 C   0  0  0  0  0  0  0  0  0  0  0  0
  -16.7622    2.6140    0.0000 C   0  0  0  0  0  0  0  0  0  0  0  0
  -18.8511   -0.1869    0.0000 C   0  0  0  0  0  0  0  0  0  0  0  0
  -19.0245   -1.6768    0.0000 O   0  0  0  0  0  0  0  0  0  0  0  0
  -17.5568    0.5713    0.0000 N   0  0  0  0  0  0  0  0  0  0  0  0
  -16.2531   -0.1705    0.0000 C   0  0  0  0  0  0  0  0  0  0  0  0
  -15.2816   -1.3134    0.0000 C   0  0  0  0  0  0  0  0  0  0  0  0
  -15.7857   -2.7262    0.0000 C   0  0  0  0  0  0  0  0  0  0  0  0
  -14.8143   -3.8691    0.0000 N   0  0  0  0  0  0  0  0  0  0  0  0
  -17.2613   -2.9960    0.0000 O   0  0  0  0  0  0  0  0  0  0  0  0
  -14.9588    0.5877    0.0000 C   0  0  0  0  0  0  0  0  0  0  0  0
  -14.6051    2.0454    0.0000 O   0  0  0  0  0  0  0  0  0  0  0  0
  -13.6550   -0.1540    0.0000 N   0  0  0  0  0  0  0  0  0  0  0  0
  -12.3608    0.6042    0.0000 C   0  0  0  0  0  0  0  0  0  0  0  0
  -11.4039    1.7593    0.0000 C   0  0  0  0  0  0  0  0  0  0  0  0
   -9.9251    1.5082    0.0000 C   0  0  0  0  0  0  0  0  0  0  0  0
  -10.8998    3.1721    0.0000 C   0  0  0  0  0  0  0  0  0  0  0  0
   -9.4243    3.4419    0.0000 C   0  0  0  0  0  0  0  0  0  0  0  0
  -11.0570   -0.1376    0.0000 C   0  0  0  0  0  0  0  0  0  0  0  0
  -11.0475   -1.6376    0.0000 O   0  0  0  0  0  0  0  0  0  0  0  0
   -9.7628    0.6206    0.0000 N   0  0  0  0  0  0  0  0  0  0  0  0
   -8.4590   -0.1212    0.0000 C   0  0  0  0  0  0  0  0  0  0  0  0
   -7.4876   -1.2641    0.0000 C   0  0  0  0  0  0  0  0  0  0  0  0
   -7.9917   -2.6769    0.0000 C   0  0  0  0  0  0  0  0  0  0  0  0
   -7.0202   -3.8198    0.0000 N   0  0  0  0  0  0  0  0  0  0  0  0
   -9.4672   -2.9467    0.0000 O   0  0  0  0  0  0  0  0  0  0  0  0
   -7.1647    0.6370    0.0000 C   0  0  0  0  0  0  0  0  0  0  0  0
   -7.1742    2.1370    0.0000 O   0  0  0  0  0  0  0  0  0  0  0  0
   -5.8610   -0.1047    0.0000 N   0  0  0  0  0  0  0  0  0  0  0  0
   -4.5667    0.6535    0.0000 C   0  0  0  0  0  0  0  0  0  0  0  0
   -3.6098    1.8086    0.0000 C   0  0  0  0  0  0  0  0  0  0  0  0
   -2.1310    1.5575    0.0000 C   0  0  0  0  0  0  0  0  0  0  0  0
   -1.1741    2.7126    0.0000 O   0  0  0  0  0  0  0  0  0  0  0  0
   -1.2843    0.3193    0.0000 O   0  0  0  0  0  0  0  0  0  0  0  0
   -3.2630   -0.0883    0.0000 C   0  0  0  0  0  0  0  0  0  0  0  0
   -3.2535   -1.5883    0.0000 O   0  0  0  0  0  0  0  0  0  0  0  0
   -1.9687    0.6699    0.0000 N   0  0  0  0  0  0  0  0  0  0  0  0
   -0.6649   -0.0719    0.0000 C   0  0  0  0  0  0  0  0  0  0  0  0
    0.3065   -1.2148    0.0000 C   0  0  0  0  0  0  0  0  0  0  0  0
    1.7820   -0.9450    0.0000 C   0  0  0  0  0  0  0  0  0  0  0  0
    2.7535   -2.0879    0.0000 C   0  0  0  0  0  0  0  0  0  0  0  0
    4.2290   -1.8181    0.0000 N   0  0  0  0  0  0  0  0  0  0  0  0
    5.2004   -2.9611    0.0000 C   0  0  0  0  0  0  0  0  0  0  0  0
    6.6321   -2.5134    0.0000 N   0  0  0  0  0  0  0  0  0  0  0  0
    4.6963   -4.3738    0.0000 N   0  0  0  0  0  0  0  0  0  0  0  0
    0.6293    0.6863    0.0000 C   0  0  0  0  0  0  0  0  0  0  0  0
    0.6199    2.1863    0.0000 O   0  0  0  0  0  0  0  0  0  0  0  0
    1.9331   -0.0554    0.0000 N   0  0  0  0  0  0  0  0  0  0  0  0
    3.2274    0.7028    0.0000 C   0  0  0  0  0  0  0  0  0  0  0  0
    4.1843    1.8579    0.0000 C   0  0  0  0  0  0  0  0  0  0  0  0
    5.6827    1.7889    0.0000 C   0  0  0  0  0  0  0  0  0  0  0  0
    4.6884    3.2707    0.0000 C   0  0  0  0  0  0  0  0  0  0  0  0
    3.7169    4.4136    0.0000 C   0  0  0  0  0  0  0  0  0  0  0  0
    4.5311   -0.0390    0.0000 C   0  0  0  0  0  0  0  0  0  0  0  0
    4.9033   -1.4921    0.0000 O   0  0  0  0  0  0  0  0  0  0  0  0
    5.8254    0.7192    0.0000 N   0  0  0  0  0  0  0  0  0  0  0  0
    7.1291   -0.0225    0.0000 C   0  0  0  0  0  0  0  0  0  0  0  0
    8.1006   -1.1655    0.0000 C   0  0  0  0  0  0  0  0  0  0  0  0
    9.5761   -0.8957    0.0000 C   0  0  0  0  0  0  0  0  0  0  0  0
   10.5475   -2.0386    0.0000 C   0  0  0  0  0  0  0  0  0  0  0  0
   12.0231   -1.7688    0.0000 C   0  0  0  0  0  0  0  0  0  0  0  0
   12.9945   -2.9118    0.0000 N   0  0  0  0  0  0  0  0  0  0  0  0
    8.4234    0.7357    0.0000 C   0  0  0  0  0  0  0  0  0  0  0  0
    8.4139    2.2356    0.0000 O   0  0  0  0  0  0  0  0  0  0  0  0
    9.7272   -0.0061    0.0000 N   0  0  0  0  0  0  0  0  0  0  0  0
   11.0214    0.7521    0.0000 C   0  0  0  0  0  0  0  0  0  0  0  0
   11.9783    1.9072    0.0000 C   0  0  0  0  0  0  0  0  0  0  0  0
   13.4572    1.6561    0.0000 C   0  0  0  0  0  0  0  0  0  0  0  0
   14.4141    2.8113    0.0000 C   0  0  0  0  0  0  0  0  0  0  0  0
   15.9125    2.7423    0.0000 O   0  0  0  0  0  0  0  0  0  0  0  0
   13.8921    4.2175    0.0000 O   0  0  0  0  0  0  0  0  0  0  0  0
   12.3252    0.0103    0.0000 C   0  0  0  0  0  0  0  0  0  0  0  0
   12.6974   -1.4428    0.0000 O   0  0  0  0  0  0  0  0  0  0  0  0
   13.6195    0.7685    0.0000 N   0  0  0  0  0  0  0  0  0  0  0  0
   14.9232    0.0268    0.0000 C   0  0  0  0  0  0  0  0  0  0  0  0
   15.8946   -1.1162    0.0000 C   0  0  0  0  0  0  0  0  0  0  0  0
   17.3702   -0.8464    0.0000 C   0  0  0  0  0  0  0  0  0  0  0  0
   18.3416   -1.9893    0.0000 C   0  0  0  0  0  0  0  0  0  0  0  0
   18.6645   -0.0882    0.0000 C   0  0  0  0  0  0  0  0  0  0  0  0
   16.2175    0.7850    0.0000 C   0  0  0  0  0  0  0  0  0  0  0  0
   16.3909    2.2749    0.0000 O   0  0  0  0  0  0  0  0  0  0  0  0
   17.5212    0.0432    0.0000 N   0  0  0  0  0  0  0  0  0  0  0  0
   18.8155    0.8014    0.0000 C   0  0  0  0  0  0  0  0  0  0  0  0
   20.1193    0.0596    0.0000 C   0  0  0  0  0  0  0  0  0  0  0  0
   20.4914   -1.3935    0.0000 O   0  0  0  0  0  0  0  0  0  0  0  0
   21.4135    0.8178    0.0000 N   0  0  0  0  0  0  0  0  0  0  0  0
   22.7173    0.0761    0.0000 C   0  0  0  0  0  0  0  0  0  0  0  0
   23.6887   -1.0669    0.0000 C   0  0  0  0  0  0  0  0  0  0  0  0
   24.8923   -1.9620    0.0000 O   0  0  0  0  0  0  0  0  0  0  0  0
   23.1846   -2.4796    0.0000 C   0  0  0  0  0  0  0  0  0  0  0  0
   24.0116    0.8343    0.0000 C   0  0  0  0  0  0  0  0  0  0  0  0
   24.0021    2.3342    0.0000 O   0  0  0  0  0  0  0  0  0  0  0  0
   25.3153    0.0925    0.0000 N   0  0  0  0  0  0  0  0  0  0  0  0
   26.6096    0.8507    0.0000 C   0  0  0  0  0  0  0  0  0  0  0  0
   27.5665    2.0059    0.0000 C   0  0  0  0  0  0  0  0  0  0  0  0
   29.0453    1.7547    0.0000 C   0  0  0  0  0  0  0  0  0  0  0  0
   30.0022    2.9099    0.0000 C   0  0  0  0  0  0  0  0  0  0  0  0
   30.3491    1.0130    0.0000 C   0  0  0  0  0  0  0  0  0  0  0  0
   27.9133    0.1089    0.0000 C   0  0  0  0  0  0  0  0  0  0  0  0
   27.9228   -1.3910    0.0000 O   0  0  0  0  0  0  0  0  0  0  0  0
   29.2076    0.8671    0.0000 N   0  0  0  0  0  0  0  0  0  0  0  0
   30.5114    0.1254    0.0000 C   0  0  0  0  0  0  0  0  0  0  0  0
   31.4828   -1.0176    0.0000 C   0  0  0  0  0  0  0  0  0  0  0  0
   30.8102   -2.3583    0.0000 C   0  0  0  0  0  0  0  0  0  0  0  0
   32.7866   -1.7593    0.0000 C   0  0  0  0  0  0  0  0  0  0  0  0
   32.7960   -3.2593    0.0000 C   0  0  0  0  0  0  0  0  0  0  0  0
   31.8056    0.8836    0.0000 C   0  0  0  0  0  0  0  0  0  0  0  0
   33.2501    0.4793    0.0000 O   0  0  0  0  0  0  0  0  0  0  0  0
   31.9791    2.3735    0.0000 O   0  0  0  0  0  0  0  0  0  0  0  0
  -29.0509   -1.7403    0.0000 H   0  0  0  0  0  0  0  0  0  0  0  0
  -29.2622    2.7473    0.0000 H   0  0  0  0  0  0  0  0  0  0  0  0
  -31.8697    4.2308    0.0000 H   0  0  0  0  0  0  0  0  0  0  0  0
  -31.4691   -1.7222    0.0000 H   0  0  0  0  0  0  0  0  0  0  0  0
  -38.4080   -3.5011    0.0000 H   0  0  0  0  0  0  0  0  0  0  0  0
  -39.5205    1.5745    0.0000 H   0  0  0  0  0  0  0  0  0  0  0  0
  -36.5901    2.2168    0.0000 H   0  0  0  0  0  0  0  0  0  0  0  0
  -41.4402   -0.1761    0.0000 H   0  0  0  0  0  0  0  0  0  0  0  0
  -31.6382    0.6424    0.0000 H   0  0  0  0  0  0  0  0  0  0  0  0
  -29.5885   -1.7553    0.0000 H   0  0  0  0  0  0  0  0  0  0  0  0
  -33.4561   -5.0755    0.0000 H   0  0  0  0  0  0  0  0  0  0  0  0
  -30.9802   -5.8627    0.0000 H   0  0  0  0  0  0  0  0  0  0  0  0
  -26.6357   -1.7362    0.0000 H   0  0  0  0  0  0  0  0  0  0  0  0
  -24.3940    1.6771    0.0000 H   0  0  0  0  0  0  0  0  0  0  0  0
  -26.3223    1.6649    0.0000 H   0  0  0  0  0  0  0  0  0  0  0  0
  -23.0757   -1.3627    0.0000 H   0  0  0  0  0  0  0  0  0  0  0  0
  -25.0040   -1.3749    0.0000 H   0  0  0  0  0  0  0  0  0  0  0  0
  -21.4396   -1.7033    0.0000 H   0  0  0  0  0  0  0  0  0  0  0  0
  -21.1263    1.6978    0.0000 H   0  0  0  0  0  0  0  0  0  0  0  0
  -18.6939    3.1228    0.0000 H   0  0  0  0  0  0  0  0  0  0  0  0
  -20.5017    2.4518    0.0000 H   0  0  0  0  0  0  0  0  0  0  0  0
  -18.0061   -1.2106    0.0000 H   0  0  0  0  0  0  0  0  0  0  0  0
  -14.8717   -1.4367    0.0000 H   0  0  0  0  0  0  0  0  0  0  0  0
  -13.2826    0.7055    0.0000 H   0  0  0  0  0  0  0  0  0  0  0  0
  -14.3265    3.5180    0.0000 H   0  0  0  0  0  0  0  0  0  0  0  0
  -17.2842    4.0203    0.0000 H   0  0  0  0  0  0  0  0  0  0  0  0
  -17.2031    2.0290    0.0000 H   0  0  0  0  0  0  0  0  0  0  0  0
  -17.2100   -1.3256    0.0000 H   0  0  0  0  0  0  0  0  0  0  0  0
  -14.0780   -2.2086    0.0000 H   0  0  0  0  0  0  0  0  0  0  0  0
  -14.0737   -0.4241    0.0000 H   0  0  0  0  0  0  0  0  0  0  0  0
  -15.3184   -5.2819    0.0000 H   0  0  0  0  0  0  0  0  0  0  0  0
  -13.3388   -3.5993    0.0000 H   0  0  0  0  0  0  0  0  0  0  0  0
  -13.4628   -1.6417    0.0000 H   0  0  0  0  0  0  0  0  0  0  0  0
  -13.3322    1.7471    0.0000 H   0  0  0  0  0  0  0  0  0  0  0  0
  -12.7076    2.5011    0.0000 H   0  0  0  0  0  0  0  0  0  0  0  0
   -8.8131    2.5317    0.0000 H   0  0  0  0  0  0  0  0  0  0  0  0
   -8.6213    0.7664    0.0000 H   0  0  0  0  0  0  0  0  0  0  0  0
   -9.7067    0.0242    0.0000 H   0  0  0  0  0  0  0  0  0  0  0  0
  -10.9093    4.6720    0.0000 H   0  0  0  0  0  0  0  0  0  0  0  0
  -12.3786    3.4232    0.0000 H   0  0  0  0  0  0  0  0  0  0  0  0
   -8.9201    4.8546    0.0000 H   0  0  0  0  0  0  0  0  0  0  0  0
   -7.9454    3.1908    0.0000 H   0  0  0  0  0  0  0  0  0  0  0  0
   -9.2320    1.9543    0.0000 H   0  0  0  0  0  0  0  0  0  0  0  0
   -9.7722    2.1206    0.0000 H   0  0  0  0  0  0  0  0  0  0  0  0
   -9.4159   -1.2763    0.0000 H   0  0  0  0  0  0  0  0  0  0  0  0
   -6.2840   -2.1593    0.0000 H   0  0  0  0  0  0  0  0  0  0  0  0
   -6.2796   -0.3748    0.0000 H   0  0  0  0  0  0  0  0  0  0  0  0
   -7.5243   -5.2326    0.0000 H   0  0  0  0  0  0  0  0  0  0  0  0
   -5.5447   -3.5500    0.0000 H   0  0  0  0  0  0  0  0  0  0  0  0
   -5.6687   -1.5924    0.0000 H   0  0  0  0  0  0  0  0  0  0  0  0
   -5.5381    1.7964    0.0000 H   0  0  0  0  0  0  0  0  0  0  0  0
   -3.1057    3.2214    0.0000 H   0  0  0  0  0  0  0  0  0  0  0  0
   -4.9136    2.5504    0.0000 H   0  0  0  0  0  0  0  0  0  0  0  0
   -0.2660   -0.3667    0.0000 H   0  0  0  0  0  0  0  0  0  0  0  0
   -1.6149    2.1276    0.0000 H   0  0  0  0  0  0  0  0  0  0  0  0
   -1.6218   -1.2270    0.0000 H   0  0  0  0  0  0  0  0  0  0  0  0
    0.6531   -2.6742    0.0000 H   0  0  0  0  0  0  0  0  0  0  0  0
   -0.9878   -1.9730    0.0000 H   0  0  0  0  0  0  0  0  0  0  0  0
    3.0763   -0.1868    0.0000 H   0  0  0  0  0  0  0  0  0  0  0  0
    1.9816    0.5417    0.0000 H   0  0  0  0  0  0  0  0  0  0  0  0
    3.2754   -3.4942    0.0000 H   0  0  0  0  0  0  0  0  0  0  0  0
    1.5613   -2.9982    0.0000 H   0  0  0  0  0  0  0  0  0  0  0  0
    5.2060   -0.6799    0.0000 H   0  0  0  0  0  0  0  0  0  0  0  0
    7.6474   -3.8342    0.0000 H   0  0  0  0  0  0  0  0  0  0  0  0
    5.6678   -5.5168    0.0000 H   0  0  0  0  0  0  0  0  0  0  0  0
    3.2208   -4.6436    0.0000 H   0  0  0  0  0  0  0  0  0  0  0  0
    2.3053   -1.5085    0.0000 H   0  0  0  0  0  0  0  0  0  0  0  0
    2.2559    1.8457    0.0000 H   0  0  0  0  0  0  0  0  0  0  0  0
    2.7998    2.4352    0.0000 H   0  0  0  0  0  0  0  0  0  0  0  0
    6.7537    2.6367    0.0000 H   0  0  0  0  0  0  0  0  0  0  0  0
    6.9668    0.8650    0.0000 H   0  0  0  0  0  0  0  0  0  0  0  0
    6.0607    0.1605    0.0000 H   0  0  0  0  0  0  0  0  0  0  0  0
    5.6453    4.4258    0.0000 H   0  0  0  0  0  0  0  0  0  0  0  0
    6.1329    2.8664    0.0000 H   0  0  0  0  0  0  0  0  0  0  0  0
    4.2210    5.8264    0.0000 H   0  0  0  0  0  0  0  0  0  0  0  0
    2.4132    5.1554    0.0000 H   0  0  0  0  0  0  0  0  0  0  0  0
    2.6264    3.3837    0.0000 H   0  0  0  0  0  0  0  0  0  0  0  0
    6.1791    2.1769    0.0000 H   0  0  0  0  0  0  0  0  0  0  0  0
    6.1723   -1.1777    0.0000 H   0  0  0  0  0  0  0  0  0  0  0  0
    8.4472   -2.6249    0.0000 H   0  0  0  0  0  0  0  0  0  0  0  0
    6.7235   -1.7603    0.0000 H   0  0  0  0  0  0  0  0  0  0  0  0
   10.7683    0.0146    0.0000 H   0  0  0  0  0  0  0  0  0  0  0  0
    9.7756    0.5910    0.0000 H   0  0  0  0  0  0  0  0  0  0  0  0
   11.0695   -3.4449    0.0000 H   0  0  0  0  0  0  0  0  0  0  0  0
    9.3553   -2.9489    0.0000 H   0  0  0  0  0  0  0  0  0  0  0  0
   13.4001   -1.1740    0.0000 H   0  0  0  0  0  0  0  0  0  0  0  0
   11.6765   -0.3094    0.0000 H   0  0  0  0  0  0  0  0  0  0  0  0
   14.4262   -2.4641    0.0000 H   0  0  0  0  0  0  0  0  0  0  0  0
   12.4904   -4.3245    0.0000 H   0  0  0  0  0  0  0  0  0  0  0  0
   10.0993   -1.4592    0.0000 H   0  0  0  0  0  0  0  0  0  0  0  0
   10.0500    1.8950    0.0000 H   0  0  0  0  0  0  0  0  0  0  0  0
   12.4824    3.3200    0.0000 H   0  0  0  0  0  0  0  0  0  0  0  0
   10.6746    2.6490    0.0000 H   0  0  0  0  0  0  0  0  0  0  0  0
   14.7609    0.9143    0.0000 H   0  0  0  0  0  0  0  0  0  0  0  0
   13.6755    0.1721    0.0000 H   0  0  0  0  0  0  0  0  0  0  0  0
   14.8490    5.3727    0.0000 H   0  0  0  0  0  0  0  0  0  0  0  0
   13.9732    2.2262    0.0000 H   0  0  0  0  0  0  0  0  0  0  0  0
   14.1143   -1.2364    0.0000 H   0  0  0  0  0  0  0  0  0  0  0  0
   16.2413   -2.5756    0.0000 H   0  0  0  0  0  0  0  0  0  0  0  0
   14.5176   -1.7110    0.0000 H   0  0  0  0  0  0  0  0  0  0  0  0
   17.5697    0.6403    0.0000 H   0  0  0  0  0  0  0  0  0  0  0  0
   19.8386   -2.0846    0.0000 H   0  0  0  0  0  0  0  0  0  0  0  0
   18.8636   -3.3956    0.0000 H   0  0  0  0  0  0  0  0  0  0  0  0
   17.1494   -2.8996    0.0000 H   0  0  0  0  0  0  0  0  0  0  0  0
   19.9682   -0.8299    0.0000 H   0  0  0  0  0  0  0  0  0  0  0  0
   19.7550    0.9417    0.0000 H   0  0  0  0  0  0  0  0  0  0  0  0
   17.5609    0.9278    0.0000 H   0  0  0  0  0  0  0  0  0  0  0  0
   17.8934   -1.4099    0.0000 H   0  0  0  0  0  0  0  0  0  0  0  0
   19.6245    2.0646    0.0000 H   0  0  0  0  0  0  0  0  0  0  0  0
   17.9906    2.0542    0.0000 H   0  0  0  0  0  0  0  0  0  0  0  0
   21.4040    2.3178    0.0000 H   0  0  0  0  0  0  0  0  0  0  0  0
   21.6267   -0.9538    0.0000 H   0  0  0  0  0  0  0  0  0  0  0  0
   24.8967   -0.1776    0.0000 H   0  0  0  0  0  0  0  0  0  0  0  0
   25.1847   -3.2963    0.0000 H   0  0  0  0  0  0  0  0  0  0  0  0
   24.0095   -3.7325    0.0000 H   0  0  0  0  0  0  0  0  0  0  0  0
   22.2277   -3.6348    0.0000 H   0  0  0  0  0  0  0  0  0  0  0  0
   21.8002   -1.9023    0.0000 H   0  0  0  0  0  0  0  0  0  0  0  0
   25.5076   -1.3951    0.0000 H   0  0  0  0  0  0  0  0  0  0  0  0
   25.6382    1.9937    0.0000 H   0  0  0  0  0  0  0  0  0  0  0  0
   27.8946    3.4695    0.0000 H   0  0  0  0  0  0  0  0  0  0  0  0
   26.2627    2.7476    0.0000 H   0  0  0  0  0  0  0  0  0  0  0  0
   29.2636    0.2707    0.0000 H   0  0  0  0  0  0  0  0  0  0  0  0
   31.4978    3.0241    0.0000 H   0  0  0  0  0  0  0  0  0  0  0  0
   30.5063    4.3226    0.0000 H   0  0  0  0  0  0  0  0  0  0  0  0
   28.7986    3.8050    0.0000 H   0  0  0  0  0  0  0  0  0  0  0  0
   30.7212   -0.4401    0.0000 H   0  0  0  0  0  0  0  0  0  0  0  0
   31.8196    1.3086    0.0000 H   0  0  0  0  0  0  0  0  0  0  0  0
   31.0216    2.3537    0.0000 H   0  0  0  0  0  0  0  0  0  0  0  0
   29.5614    2.3248    0.0000 H   0  0  0  0  0  0  0  0  0  0  0  0
   29.4208   -0.9045    0.0000 H   0  0  0  0  0  0  0  0  0  0  0  0
   32.6908   -0.1283    0.0000 H   0  0  0  0  0  0  0  0  0  0  0  0
   31.7935   -3.7032    0.0000 H   0  0  0  0  0  0  0  0  0  0  0  0
   30.0218   -3.5855    0.0000 H   0  0  0  0  0  0  0  0  0  0  0  0
   29.5942   -1.8530    0.0000 H   0  0  0  0  0  0  0  0  0  0  0  0
   34.2654   -2.0105    0.0000 H   0  0  0  0  0  0  0  0  0  0  0  0
   33.4591   -0.4186    0.0000 H   0  0  0  0  0  0  0  0  0  0  0  0
   34.0998   -4.0011    0.0000 H   0  0  0  0  0  0  0  0  0  0  0  0
   32.2919   -4.6721    0.0000 H   0  0  0  0  0  0  0  0  0  0  0  0
   31.3004   -3.3735    0.0000 H   0  0  0  0  0  0  0  0  0  0  0  0
   33.0904    3.1418    0.0000 H   0  0  0  0  0  0  0  0  0  0  0  0
  1  2  1  0
  2  3  1  0
  3  4  2  0
  4  5  1  0
  5  6  2  0
  6  7  1  0
  7  8  2  0
  7  9  1  0
  9 10  1  0
 10 11  1  0
 11 12  2  0
  9 13  1  0
 13 14  1  0
 14 15  2  0
 15 16  1  0
 16 17  2  0
 17 18  1  0
 16 19  1  0
 14 20  1  0
 20 21  1  0
 21 22  2  0
 22 23  1  0
 23 24  2  0
 24 25  1  0
 25 26  2  0
 25 27  1  0
  1 28  2  0
  1 29  1  0
 29 30  1  0
 30 31  1  0
 31 32  1  0
 32 33  2  0
 32 34  1  0
 34 35  1  0
 35 36  1  0
 36 37  1  0
 37 38  2  0
 38 39  1  0
 39 40  2  0
 40 41  1  0
 41 42  2  0
 35 43  1  0
 43 44  2  0
 43 45  1  0
 45 46  1  0
 46 47  1  0
 47 48  1  0
 48 49  1  0
 48 50  2  0
 46 51  1  0
 51 52  2  0
 51 53  1  0
 53 54  1  0
 54 55  1  0
 55 56  1  0
 55 57  1  0
 57 58  1  0
 54 59  1  0
 59 60  2  0
 59 61  1  0
 61 62  1  0
 62 63  1  0
 63 64  1  0
 64 65  1  0
 64 66  2  0
 62 67  1  0
 67 68  2  0
 67 69  1  0
 69 70  1  0
 70 71  1  0
 71 72  1  0
 72 73  2  0
 72 74  1  0
 70 75  1  0
 75 76  2  0
 75 77  1  0
 77 78  1  0
 78 79  1  0
 79 80  1  0
 80 81  1  0
 81 82  1  0
 82 83  1  0
 83 84  2  3
 83 85  1  0
 78 86  1  0
 86 87  2  0
 86 88  1  0
 88 89  1  0
 89 90  1  0
 90 91  1  0
 90 92  1  0
 92 93  1  0
 89 94  1  0
 94 95  2  0
 94 96  1  0
 96 97  1  0
 97 98  1  0
 98 99  1  0
 99100  1  0
100101  1  0
101102  1  0
 97103  1  0
103104  2  0
103105  1  0
105106  1  0
106107  1  0
107108  1  0
108109  1  0
109110  2  0
109111  1  0
106112  1  0
112113  2  0
112114  1  0
114115  1  0
115116  1  0
116117  1  0
117118  1  0
117119  1  0
115120  1  0
120121  2  0
120122  1  0
122123  1  0
123124  1  0
124125  2  0
124126  1  0
126127  1  0
127128  1  0
128129  1  0
128130  1  0
127131  1  0
131132  2  0
131133  1  0
133134  1  0
134135  1  0
135136  1  0
136137  1  0
136138  1  0
134139  1  0
139140  2  0
139141  1  0
141142  1  0
142143  1  0
143144  1  0
143145  1  0
145146  1  0
142147  1  0
147148  2  0
147149  1  0
  8  3  1  0
 42 37  1  0
 11  6  1  0
 18 13  2  0
 22  9  1  0
 26 21  1  0
  2150  1  0
  4151  1  0
  5152  1  0
  8153  1  0
 15154  1  0
 17155  1  0
 18156  1  0
 19157  1  0
 23158  1  0
 24159  1  0
 26160  1  0
 27161  1  0
 29162  1  0
 30163  1  0
 30164  1  0
 31165  1  0
 31166  1  0
 34167  1  0
 35168  1  1
 36169  1  0
 36170  1  0
 38171  1  0
 39172  1  0
 40173  1  0
 41174  1  0
 42175  1  0
 45176  1  0
 46177  1  6
 47178  1  0
 47179  1  0
 49180  1  0
 49181  1  0
 53182  1  0
 54183  1  1
 55184  1  1
 56185  1  0
 56186  1  0
 56187  1  0
 57188  1  0
 57189  1  0
 58190  1  0
 58191  1  0
 58192  1  0
 61193  1  0
 62194  1  6
 63195  1  0
 63196  1  0
 65197  1  0
 65198  1  0
 69199  1  0
 70200  1  1
 71201  1  0
 71202  1  0
 74203  1  0
 77204  1  0
 78205  1  6
 79206  1  0
 79207  1  0
 80208  1  0
 80209  1  0
 81210  1  0
 81211  1  0
 82212  1  0
 84213  1  0
 85214  1  0
 85215  1  0
 88216  1  0
 89217  1  1
 90218  1  1
 91219  1  0
 91220  1  0
 91221  1  0
 92222  1  0
 92223  1  0
 93224  1  0
 93225  1  0
 93226  1  0
 96227  1  0
 97228  1  6
 98229  1  0
 98230  1  0
 99231  1  0
 99232  1  0
100233  1  0
100234  1  0
101235  1  0
101236  1  0
102237  1  0
102238  1  0
105239  1  0
106240  1  1
107241  1  0
107242  1  0
108243  1  0
108244  1  0
111245  1  0
114246  1  0
115247  1  6
116248  1  0
116249  1  0
117250  1  0
118251  1  0
118252  1  0
118253  1  0
119254  1  0
119255  1  0
119256  1  0
122257  1  0
123258  1  0
123259  1  0
126260  1  0
127261  1  6
128262  1  1
129263  1  0
130264  1  0
130265  1  0
130266  1  0
133267  1  0
134268  1  1
135269  1  0
135270  1  0
136271  1  0
137272  1  0
137273  1  0
137274  1  0
138275  1  0
138276  1  0
138277  1  0
141278  1  0
142279  1  6
143280  1  1
144281  1  0
144282  1  0
144283  1  0
145284  1  0
145285  1  0
146286  1  0
146287  1  0
146288  1  0
149289  1  0
M  END
