
     RDKit          2D

237245  0  0  0  0  0  0  0  0999 V2000
  -14.4447   -1.3073    0.0000 C   0  0  0  0  0  0  0  0  0  0  0  0
  -14.8176   -2.7602    0.0000 N   0  0  0  0  0  0  0  0  0  0  0  0
  -16.2623   -3.1637    0.0000 C   0  0  0  0  0  0  0  0  0  0  0  0
  -17.3341   -2.1143    0.0000 C   0  0  0  0  0  0  0  0  0  0  0  0
  -18.7788   -2.5179    0.0000 C   0  0  0  0  0  0  0  0  0  0  0  0
  -19.1517   -3.9708    0.0000 C   0  0  0  0  0  0  0  0  0  0  0  0
  -18.0799   -5.0202    0.0000 C   0  0  0  0  0  0  0  0  0  0  0  0
  -16.6352   -4.6167    0.0000 C   0  0  0  0  0  0  0  0  0  0  0  0
  -18.7467   -6.3638    0.0000 C   0  0  0  0  0  0  0  0  0  0  0  0
  -20.2306   -6.1448    0.0000 O   0  0  0  0  0  0  0  0  0  0  0  0
  -20.4809   -4.6658    0.0000 C   0  0  0  0  0  0  0  0  0  0  0  0
  -21.8246   -3.9990    0.0000 O   0  0  0  0  0  0  0  0  0  0  0  0
  -19.5503   -7.6304    0.0000 C   0  0  0  0  0  0  0  0  0  0  0  0
  -18.8553   -8.9596    0.0000 C   0  0  0  0  0  0  0  0  0  0  0  0
  -19.6589  -10.2262    0.0000 C   0  0  0  0  0  0  0  0  0  0  0  0
  -21.1576  -10.1635    0.0000 C   0  0  0  0  0  0  0  0  0  0  0  0
  -21.8527   -8.8342    0.0000 C   0  0  0  0  0  0  0  0  0  0  0  0
  -21.0490   -7.5677    0.0000 C   0  0  0  0  0  0  0  0  0  0  0  0
  -21.9612  -11.4300    0.0000 O   0  0  0  0  0  0  0  0  0  0  0  0
  -17.3566   -9.0223    0.0000 O   0  0  0  0  0  0  0  0  0  0  0  0
  -16.5530   -7.7557    0.0000 C   0  0  0  0  0  0  0  0  0  0  0  0
  -17.2480   -6.4265    0.0000 C   0  0  0  0  0  0  0  0  0  0  0  0
  -16.1200   -5.7802    0.0000 C   0  0  0  0  0  0  0  0  0  0  0  0
  -15.3207   -5.8136    0.0000 C   0  0  0  0  0  0  0  0  0  0  0  0
  -14.9500   -6.5226    0.0000 C   0  0  0  0  0  0  0  0  0  0  0  0
  -15.3786   -7.1981    0.0000 C   0  0  0  0  0  0  0  0  0  0  0  0
  -12.7520   -6.6145    0.0000 O   0  0  0  0  0  0  0  0  0  0  0  0
  -15.5165   -0.2579    0.0000 S   0  0  0  0  0  0  0  0  0  0  0  0
  -12.9999   -0.9038    0.0000 N   0  0  0  0  0  0  0  0  0  0  0  0
  -12.6270    0.5491    0.0000 C   0  0  0  0  0  0  0  0  0  0  0  0
  -11.1823    0.9526    0.0000 C   0  0  0  0  0  0  0  0  0  0  0  0
  -10.8094    2.4055    0.0000 C   0  0  0  0  0  0  0  0  0  0  0  0
  -11.4970    2.8088    0.0000 O   0  0  0  0  0  0  0  0  0  0  0  0
   -9.3647    2.8090    0.0000 N   0  0  0  0  0  0  0  0  0  0  0  0
   -8.9918    4.2619    0.0000 C   0  0  0  0  0  0  0  0  0  0  0  0
  -10.4874    4.3769    0.0000 C   0  0  0  0  0  0  0  0  0  0  0  0
  -11.3347    3.1391    0.0000 C   0  0  0  0  0  0  0  0  0  0  0  0
  -12.8303    3.2541    0.0000 C   0  0  0  0  0  0  0  0  0  0  0  0
  -13.8222    2.1288    0.0000 N   0  0  0  0  0  0  0  0  0  0  0  0
  -13.4786    4.6068    0.0000 O   0  0  0  0  0  0  0  0  0  0  0  0
   -8.1445    5.4997    0.0000 C   0  0  0  0  0  0  0  0  0  0  0  0
   -9.1008    6.6553    0.0000 O   0  0  0  0  0  0  0  0  0  0  0  0
   -6.6489    5.3847    0.0000 N   0  0  0  0  0  0  0  0  0  0  0  0
   -5.8015    6.6225    0.0000 C   0  0  0  0  0  0  0  0  0  0  0  0
   -7.1676    7.2420    0.0000 C   0  0  0  0  0  0  0  0  0  0  0  0
   -8.2394    8.2914    0.0000 O   0  0  0  0  0  0  0  0  0  0  0  0
   -8.4845    6.5239    0.0000 C   0  0  0  0  0  0  0  0  0  0  0  0
   -4.5820    7.4958    0.0000 C   0  0  0  0  0  0  0  0  0  0  0  0
   -5.0853    8.9088    0.0000 O   0  0  0  0  0  0  0  0  0  0  0  0
   -3.2159    6.8762    0.0000 N   0  0  0  0  0  0  0  0  0  0  0  0
   -1.9963    7.7495    0.0000 C   0  0  0  0  0  0  0  0  0  0  0  0
   -3.0681    8.7989    0.0000 C   0  0  0  0  0  0  0  0  0  0  0  0
   -4.5128    8.3954    0.0000 C   0  0  0  0  0  0  0  0  0  0  0  0
   -5.5846    9.4448    0.0000 C   0  0  0  0  0  0  0  0  0  0  0  0
   -7.0293    9.0413    0.0000 C   0  0  0  0  0  0  0  0  0  0  0  0
   -7.4022    7.5884    0.0000 C   0  0  0  0  0  0  0  0  0  0  0  0
   -6.3304    6.5390    0.0000 C   0  0  0  0  0  0  0  0  0  0  0  0
   -4.8857    6.9425    0.0000 C   0  0  0  0  0  0  0  0  0  0  0  0
   -0.5516    8.1530    0.0000 C   0  0  0  0  0  0  0  0  0  0  0  0
   -0.3586    9.6405    0.0000 O   0  0  0  0  0  0  0  0  0  0  0  0
    0.5202    7.1036    0.0000 N   0  0  0  0  0  0  0  0  0  0  0  0
    1.9649    7.5071    0.0000 C   0  0  0  0  0  0  0  0  0  0  0  0
    1.3167    8.8598    0.0000 C   0  0  0  0  0  0  0  0  0  0  0  0
   -0.1538    9.1562    0.0000 O   0  0  0  0  0  0  0  0  0  0  0  0
    3.4605    7.3922    0.0000 C   0  0  0  0  0  0  0  0  0  0  0  0
    4.1506    8.7240    0.0000 O   0  0  0  0  0  0  0  0  0  0  0  0
    4.1087    6.0395    0.0000 N   0  0  0  0  0  0  0  0  0  0  0  0
    5.6043    5.9245    0.0000 C   0  0  0  0  0  0  0  0  0  0  0  0
    6.7432    6.9008    0.0000 C   0  0  0  0  0  0  0  0  0  0  0  0
    8.1689    7.3669    0.0000 C   0  0  0  0  0  0  0  0  0  0  0  0
    9.6645    7.2520    0.0000 C   0  0  0  0  0  0  0  0  0  0  0  0
   11.0022    6.5735    0.0000 C   0  0  0  0  0  0  0  0  0  0  0  0
    4.9679    7.2828    0.0000 C   0  0  0  0  0  0  0  0  0  0  0  0
    4.9258    4.5868    0.0000 C   0  0  0  0  0  0  0  0  0  0  0  0
    3.4428    4.8122    0.0000 O   0  0  0  0  0  0  0  0  0  0  0  0
    4.8109    3.0912    0.0000 N   0  0  0  0  0  0  0  0  0  0  0  0
    5.2770    1.6655    0.0000 C   0  0  0  0  0  0  0  0  0  0  0  0
    3.7814    1.7804    0.0000 C   0  0  0  0  0  0  0  0  0  0  0  0
    2.9341    0.5427    0.0000 C   0  0  0  0  0  0  0  0  0  0  0  0
    1.4385    0.6576    0.0000 C   0  0  0  0  0  0  0  0  0  0  0  0
    2.5612   -0.9102    0.0000 C   0  0  0  0  0  0  0  0  0  0  0  0
    6.2533    0.5266    0.0000 C   0  0  0  0  0  0  0  0  0  0  0  0
    5.3268   -0.6530    0.0000 O   0  0  0  0  0  0  0  0  0  0  0  0
    7.5910   -0.1519    0.0000 N   0  0  0  0  0  0  0  0  0  0  0  0
    9.3562    0.2646    0.0000 C   0  0  0  0  0  0  0  0  0  0  0  0
   10.4911    1.2454    0.0000 C   0  0  0  0  0  0  0  0  0  0  0  0
   11.9391    1.6367    0.0000 C   0  0  0  0  0  0  0  0  0  0  0  0
   10.9869    2.7957    0.0000 C   0  0  0  0  0  0  0  0  0  0  0  0
   11.0025    4.2956    0.0000 N   0  0  0  0  0  0  0  0  0  0  0  0
   11.9785    5.4346    0.0000 C   0  0  0  0  0  0  0  0  0  0  0  0
   13.4583    5.6798    0.0000 C   0  0  0  0  0  0  0  0  0  0  0  0
   14.7495    4.9164    0.0000 C   0  0  0  0  0  0  0  0  0  0  0  0
   15.2479    3.5016    0.0000 C   0  0  0  0  0  0  0  0  0  0  0  0
   14.7203    2.0974    0.0000 C   0  0  0  0  0  0  0  0  0  0  0  0
   13.4136    1.3610    0.0000 C   0  0  0  0  0  0  0  0  0  0  0  0
    8.7592   -1.1115    0.0000 C   0  0  0  0  0  0  0  0  0  0  0  0
    7.2839   -1.3825    0.0000 O   0  0  0  0  0  0  0  0  0  0  0  0
    8.8185   -2.6103    0.0000 N   0  0  0  0  0  0  0  0  0  0  0  0
    9.5222   -3.9350    0.0000 C   0  0  0  0  0  0  0  0  0  0  0  0
    8.0319   -4.1061    0.0000 C   0  0  0  0  0  0  0  0  0  0  0  0
    7.4350   -5.4822    0.0000 C   0  0  0  0  0  0  0  0  0  0  0  0
    5.9448   -5.6533    0.0000 C   0  0  0  0  0  0  0  0  0  0  0  0
    5.3478   -7.0294    0.0000 C   0  0  0  0  0  0  0  0  0  0  0  0
    3.8576   -7.2005    0.0000 N   0  0  0  0  0  0  0  0  0  0  0  0
   10.7309   -4.8232    0.0000 C   0  0  0  0  0  0  0  0  0  0  0  0
   10.1340   -6.1993    0.0000 O   0  0  0  0  0  0  0  0  0  0  0  0
   12.2054   -5.0990    0.0000 N   0  0  0  0  0  0  0  0  0  0  0  0
   13.6534   -4.7077    0.0000 C   0  0  0  0  0  0  0  0  0  0  0  0
   14.7883   -3.7269    0.0000 C   0  0  0  0  0  0  0  0  0  0  0  0
   15.3853   -2.3508    0.0000 C   0  0  0  0  0  0  0  0  0  0  0  0
   15.3260   -0.8519    0.0000 C   0  0  0  0  0  0  0  0  0  0  0  0
   14.6223    0.4728    0.0000 C   0  0  0  0  0  0  0  0  0  0  0  0
   14.8861   -5.5624    0.0000 C   0  0  0  0  0  0  0  0  0  0  0  0
   13.4886   -6.1986    0.0000 C   0  0  0  0  0  0  0  0  0  0  0  0
   12.1987   -6.9643    0.0000 O   0  0  0  0  0  0  0  0  0  0  0  0
   14.6974   -7.0868    0.0000 N   0  0  0  0  0  0  0  0  0  0  0  0
   14.5326   -8.5777    0.0000 C   0  0  0  0  0  0  0  0  0  0  0  0
   13.8678   -9.9223    0.0000 C   0  0  0  0  0  0  0  0  0  0  0  0
   12.3709  -10.0189    0.0000 C   0  0  0  0  0  0  0  0  0  0  0  0
   11.7061  -11.3636    0.0000 C   0  0  0  0  0  0  0  0  0  0  0  0
   10.9312   -9.5977    0.0000 C   0  0  0  0  0  0  0  0  0  0  0  0
   15.7413   -9.4659    0.0000 C   0  0  0  0  0  0  0  0  0  0  0  0
   15.7595  -10.9658    0.0000 O   0  0  0  0  0  0  0  0  0  0  0  0
   17.1149   -8.8632    0.0000 O   0  0  0  0  0  0  0  0  0  0  0  0
  -13.6258   -3.6712    0.0000 H   0  0  0  0  0  0  0  0  0  0  0  0
  -16.9612   -0.6614    0.0000 H   0  0  0  0  0  0  0  0  0  0  0  0
  -19.8506   -1.4685    0.0000 H   0  0  0  0  0  0  0  0  0  0  0  0
  -15.3413   -5.3755    0.0000 H   0  0  0  0  0  0  0  0  0  0  0  0
  -18.9638  -11.5554    0.0000 H   0  0  0  0  0  0  0  0  0  0  0  0
  -23.3513   -8.7716    0.0000 H   0  0  0  0  0  0  0  0  0  0  0  0
  -21.7441   -6.2384    0.0000 H   0  0  0  0  0  0  0  0  0  0  0  0
  -23.4599  -11.3674    0.0000 H   0  0  0  0  0  0  0  0  0  0  0  0
  -17.1395   -3.8307    0.0000 H   0  0  0  0  0  0  0  0  0  0  0  0
  -13.9937   -4.0634    0.0000 H   0  0  0  0  0  0  0  0  0  0  0  0
  -14.3592   -9.1476    0.0000 H   0  0  0  0  0  0  0  0  0  0  0  0
  -12.0569   -7.9438    0.0000 H   0  0  0  0  0  0  0  0  0  0  0  0
  -11.9281   -1.9532    0.0000 H   0  0  0  0  0  0  0  0  0  0  0  0
  -14.1226    0.6640    0.0000 H   0  0  0  0  0  0  0  0  0  0  0  0
  -12.9544    2.0129    0.0000 H   0  0  0  0  0  0  0  0  0  0  0  0
  -11.0358   -0.5402    0.0000 H   0  0  0  0  0  0  0  0  0  0  0  0
   -9.6867    0.8376    0.0000 H   0  0  0  0  0  0  0  0  0  0  0  0
   -8.2929    1.7596    0.0000 H   0  0  0  0  0  0  0  0  0  0  0  0
   -7.6257    3.6424    0.0000 H   0  0  0  0  0  0  0  0  0  0  0  0
  -11.8535    4.9964    0.0000 H   0  0  0  0  0  0  0  0  0  0  0  0
  -10.1145    5.8298    0.0000 H   0  0  0  0  0  0  0  0  0  0  0  0
  -11.7076    1.6862    0.0000 H   0  0  0  0  0  0  0  0  0  0  0  0
  -10.1592    2.2074    0.0000 H   0  0  0  0  0  0  0  0  0  0  0  0
  -15.1733    2.1313    0.0000 H   0  0  0  0  0  0  0  0  0  0  0  0
  -13.4075    0.5153    0.0000 H   0  0  0  0  0  0  0  0  0  0  0  0
   -6.0006    4.0320    0.0000 H   0  0  0  0  0  0  0  0  0  0  0  0
   -4.7297    5.5731    0.0000 H   0  0  0  0  0  0  0  0  0  0  0  0
   -6.3203    8.4797    0.0000 H   0  0  0  0  0  0  0  0  0  0  0  0
   -9.7225    8.0670    0.0000 H   0  0  0  0  0  0  0  0  0  0  0  0
   -9.8004    6.8301    0.0000 H   0  0  0  0  0  0  0  0  0  0  0  0
   -9.2345    5.1310    0.0000 H   0  0  0  0  0  0  0  0  0  0  0  0
   -7.8249    4.9803    0.0000 H   0  0  0  0  0  0  0  0  0  0  0  0
   -2.8885    5.4124    0.0000 H   0  0  0  0  0  0  0  0  0  0  0  0
   -1.3481    6.3968    0.0000 H   0  0  0  0  0  0  0  0  0  0  0  0
   -3.7164   10.1516    0.0000 H   0  0  0  0  0  0  0  0  0  0  0  0
   -1.8485    9.6722    0.0000 H   0  0  0  0  0  0  0  0  0  0  0  0
   -5.2117   10.8977    0.0000 H   0  0  0  0  0  0  0  0  0  0  0  0
   -8.1011   10.0907    0.0000 H   0  0  0  0  0  0  0  0  0  0  0  0
   -8.8854    7.3640    0.0000 H   0  0  0  0  0  0  0  0  0  0  0  0
   -6.8777    5.1424    0.0000 H   0  0  0  0  0  0  0  0  0  0  0  0
   -3.9498    5.7703    0.0000 H   0  0  0  0  0  0  0  0  0  0  0  0
    0.1473    5.6507    0.0000 H   0  0  0  0  0  0  0  0  0  0  0  0
    2.1114    6.0143    0.0000 H   0  0  0  0  0  0  0  0  0  0  0  0
    1.1702   10.3526    0.0000 H   0  0  0  0  0  0  0  0  0  0  0  0
    2.7614    9.2633    0.0000 H   0  0  0  0  0  0  0  0  0  0  0  0
   -0.8272   10.3275    0.0000 H   0  0  0  0  0  0  0  0  0  0  0  0
    3.1168    4.9143    0.0000 H   0  0  0  0  0  0  0  0  0  0  0  0
    6.8581    8.3964    0.0000 H   0  0  0  0  0  0  0  0  0  0  0  0
    5.4981    7.7373    0.0000 H   0  0  0  0  0  0  0  0  0  0  0  0
    8.6793    8.7774    0.0000 H   0  0  0  0  0  0  0  0  0  0  0  0
    7.3387    8.6163    0.0000 H   0  0  0  0  0  0  0  0  0  0  0  0
   10.8033    8.2283    0.0000 H   0  0  0  0  0  0  0  0  0  0  0  0
    9.3756    8.7239    0.0000 H   0  0  0  0  0  0  0  0  0  0  0  0
   11.9287    7.7531    0.0000 H   0  0  0  0  0  0  0  0  0  0  0  0
    3.8001    7.9622    0.0000 H   0  0  0  0  0  0  0  0  0  0  0  0
    5.3771    8.8110    0.0000 H   0  0  0  0  0  0  0  0  0  0  0  0
    6.4132    8.1366    0.0000 H   0  0  0  0  0  0  0  0  0  0  0  0
    3.3109    3.0950    0.0000 H   0  0  0  0  0  0  0  0  0  0  0  0
    4.7666    0.2550    0.0000 H   0  0  0  0  0  0  0  0  0  0  0  0
    2.5010    2.5618    0.0000 H   0  0  0  0  0  0  0  0  0  0  0  0
    3.6087    3.2704    0.0000 H   0  0  0  0  0  0  0  0  0  0  0  0
    4.2144   -0.2388    0.0000 H   0  0  0  0  0  0  0  0  0  0  0  0
    0.4466   -0.4676    0.0000 H   0  0  0  0  0  0  0  0  0  0  0  0
    0.0724    1.2771    0.0000 H   0  0  0  0  0  0  0  0  0  0  0  0
    1.6315    2.1451    0.0000 H   0  0  0  0  0  0  0  0  0  0  0  0
    1.1764   -1.4868    0.0000 H   0  0  0  0  0  0  0  0  0  0  0  0
    2.7077   -2.4031    0.0000 H   0  0  0  0  0  0  0  0  0  0  0  0
    4.0568   -1.0252    0.0000 H   0  0  0  0  0  0  0  0  0  0  0  0
    7.0134   -1.5362    0.0000 H   0  0  0  0  0  0  0  0  0  0  0  0
    8.1474    1.1528    0.0000 H   0  0  0  0  0  0  0  0  0  0  0  0
   10.2902    2.7319    0.0000 H   0  0  0  0  0  0  0  0  0  0  0  0
    9.0882    1.7765    0.0000 H   0  0  0  0  0  0  0  0  0  0  0  0
    9.5219    2.4735    0.0000 H   0  0  0  0  0  0  0  0  0  0  0  0
    9.5983    4.8232    0.0000 H   0  0  0  0  0  0  0  0  0  0  0  0
   13.7341    7.1542    0.0000 H   0  0  0  0  0  0  0  0  0  0  0  0
   15.9085    5.8686    0.0000 H   0  0  0  0  0  0  0  0  0  0  0  0
   16.7478    3.4861    0.0000 H   0  0  0  0  0  0  0  0  0  0  0  0
   15.9698    1.2675    0.0000 H   0  0  0  0  0  0  0  0  0  0  0  0
    7.3335   -2.8222    0.0000 H   0  0  0  0  0  0  0  0  0  0  0  0
    9.3166   -5.4208    0.0000 H   0  0  0  0  0  0  0  0  0  0  0  0
    6.6265   -3.5819    0.0000 H   0  0  0  0  0  0  0  0  0  0  0  0
    7.5795   -2.6759    0.0000 H   0  0  0  0  0  0  0  0  0  0  0  0
    7.5279   -6.9793    0.0000 H   0  0  0  0  0  0  0  0  0  0  0  0
    8.8404   -6.0063    0.0000 H   0  0  0  0  0  0  0  0  0  0  0  0
    4.5393   -5.1291    0.0000 H   0  0  0  0  0  0  0  0  0  0  0  0
    5.8519   -4.1561    0.0000 H   0  0  0  0  0  0  0  0  0  0  0  0
    5.2576   -8.5267    0.0000 H   0  0  0  0  0  0  0  0  0  0  0  0
    6.7533   -7.5535    0.0000 H   0  0  0  0  0  0  0  0  0  0  0  0
    3.2607   -8.5766    0.0000 H   0  0  0  0  0  0  0  0  0  0  0  0
    2.3988   -6.8515    0.0000 H   0  0  0  0  0  0  0  0  0  0  0  0
    3.7647   -5.7033    0.0000 H   0  0  0  0  0  0  0  0  0  0  0  0
   12.0815   -6.5938    0.0000 H   0  0  0  0  0  0  0  0  0  0  0  0
   15.4555   -5.0703    0.0000 H   0  0  0  0  0  0  0  0  0  0  0  0
   16.2874   -3.7798    0.0000 H   0  0  0  0  0  0  0  0  0  0  0  0
   16.5692   -3.2717    0.0000 H   0  0  0  0  0  0  0  0  0  0  0  0
   16.8221   -1.9200    0.0000 H   0  0  0  0  0  0  0  0  0  0  0  0
   16.7924   -1.1680    0.0000 H   0  0  0  0  0  0  0  0  0  0  0  0
   16.3021    0.2871    0.0000 H   0  0  0  0  0  0  0  0  0  0  0  0
   15.8683    1.3079    0.0000 H   0  0  0  0  0  0  0  0  0  0  0  0
   15.3605   -6.8274    0.0000 H   0  0  0  0  0  0  0  0  0  0  0  0
   16.4674   -5.6077    0.0000 H   0  0  0  0  0  0  0  0  0  0  0  0
   15.9696   -4.2803    0.0000 H   0  0  0  0  0  0  0  0  0  0  0  0
   16.0710   -6.4841    0.0000 H   0  0  0  0  0  0  0  0  0  0  0  0
   13.1550   -7.9842    0.0000 H   0  0  0  0  0  0  0  0  0  0  0  0
   13.8859  -11.4222    0.0000 H   0  0  0  0  0  0  0  0  0  0  0  0
   15.2453  -10.5159    0.0000 H   0  0  0  0  0  0  0  0  0  0  0  0
   12.3527   -8.5190    0.0000 H   0  0  0  0  0  0  0  0  0  0  0  0
   10.2321  -11.6419    0.0000 H   0  0  0  0  0  0  0  0  0  0  0  0
   11.5413  -12.8545    0.0000 H   0  0  0  0  0  0  0  0  0  0  0  0
   13.0837  -11.9571    0.0000 H   0  0  0  0  0  0  0  0  0  0  0  0
    9.7284  -10.4940    0.0000 H   0  0  0  0  0  0  0  0  0  0  0  0
    9.7225   -8.7095    0.0000 H   0  0  0  0  0  0  0  0  0  0  0  0
   11.5960   -8.2531    0.0000 H   0  0  0  0  0  0  0  0  0  0  0  0
  1  2  1  0
  2  3  1  0
  3  4  2  0
  4  5  1  0
  5  6  2  0
  6  7  1  0
  7  8  2  0
  7  9  1  0
  9 10  1  0
 10 11  1  0
 11 12  2  0
  9 13  1  0
 13 14  1  0
 14 15  2  0
 15 16  1  0
 16 17  2  0
 17 18  1  0
 16 19  1  0
 14 20  1  0
 20 21  1  0
 21 22  2  0
 22 23  1  0
 23 24  2  0
 24 25  1  0
 25 26  2  0
 25 27  1  0
  1 28  2  0
  1 29  1  0
 29 30  1  0
 30 31  1  0
 31 32  1  0
 32 33  2  0
 32 34  1  0
 34 35  1  0
 35 36  1  0
 36 37  1  0
 37 38  1  0
 38 39  1  0
 38 40  2  0
 35 41  1  0
 41 42  2  0
 41 43  1  0
 43 44  1  0
 44 45  1  0
 45 46  1  0
 45 47  1  0
 44 48  1  0
 48 49  2  0
 48 50  1  0
 50 51  1  0
 51 52  1  0
 52 53  1  0
 53 54  2  0
 54 55  1  0
 55 56  2  0
 56 57  1  0
 57 58  2  0
 51 59  1  0
 59 60  2  0
 59 61  1  0
 61 62  1  0
 62 63  1  0
 63 64  1  0
 62 65  1  0
 65 66  2  0
 65 67  1  0
 68 67  1  1
 68 69  1  0
 69 70  1  0
 70 71  1  0
 71 72  1  0
 68 73  1  0
 68 74  1  0
 74 75  2  0
 74 76  1  0
 76 77  1  0
 77 78  1  0
 78 79  1  0
 79 80  1  0
 79 81  1  0
 77 82  1  0
 82 83  2  0
 82 84  1  0
 84 85  1  0
 85 86  1  0
 86 87  1  0
 87 88  2  0
 88 89  1  0
 89 90  1  0
 90 91  1  0
 91 92  2  0
 92 93  1  0
 93 94  2  0
 94 95  1  0
 85 96  1  0
 96 97  2  0
 96 98  1  0
 98 99  1  0
 99100  1  0
100101  1  0
101102  1  0
102103  1  0
103104  1  0
 99105  1  0
105106  2  0
105107  1  0
107108  1  0
108109  1  0
109110  1  0
110111  1  0
111112  1  0
108113  1  0
108114  1  1
114115  2  0
114116  1  0
116117  1  0
117118  1  0
118119  1  0
119120  1  0
119121  1  0
117122  1  0
122123  2  0
122124  1  0
  8  3  1  0
 58 53  1  0
 95 87  1  0
 11  6  1  0
 72 90  2  0
112 95  2  0
 18 13  2  0
 22  9  1  0
 26 21  1  0
  2125  1  0
  4126  1  0
  5127  1  0
  8128  1  0
 15129  1  0
 17130  1  0
 18131  1  0
 19132  1  0
 23133  1  0
 24134  1  0
 26135  1  0
 27136  1  0
 29137  1  0
 30138  1  0
 30139  1  0
 31140  1  0
 31141  1  0
 34142  1  0
 35143  1  1
 36144  1  0
 36145  1  0
 37146  1  0
 37147  1  0
 39148  1  0
 39149  1  0
 43150  1  0
 44151  1  1
 45152  1  6
 46153  1  0
 47154  1  0
 47155  1  0
 47156  1  0
 50157  1  0
 51158  1  1
 52159  1  0
 52160  1  0
 54161  1  0
 55162  1  0
 56163  1  0
 57164  1  0
 58165  1  0
 61166  1  0
 62167  1  1
 63168  1  0
 63169  1  0
 64170  1  0
 67171  1  0
 69172  1  0
 69173  1  0
 70174  1  0
 70175  1  0
 71176  1  0
 71177  1  0
 72178  1  0
 73179  1  0
 73180  1  0
 73181  1  0
 76182  1  0
 77183  1  6
 78184  1  0
 78185  1  0
 79186  1  0
 80187  1  0
 80188  1  0
 80189  1  0
 81190  1  0
 81191  1  0
 81192  1  0
 84193  1  0
 85194  1  1
 86195  1  0
 86196  1  0
 88197  1  0
 89198  1  0
 91199  1  0
 92200  1  0
 93201  1  0
 94202  1  0
 98203  1  0
 99204  1  6
100205  1  0
100206  1  0
101207  1  0
101208  1  0
102209  1  0
102210  1  0
103211  1  0
103212  1  0
104213  1  0
104214  1  0
104215  1  0
107216  1  0
109217  1  0
109218  1  0
110219  1  0
110220  1  0
111221  1  0
111222  1  0
112223  1  0
113224  1  0
113225  1  0
113226  1  0
116227  1  0
117228  1  6
118229  1  0
118230  1  0
119231  1  0
120232  1  0
120233  1  0
120234  1  0
121235  1  0
121236  1  0
121237  1  0
M  CHG  2 104   1 124  -1
M  END
