
     RDKit          2D

353359  0  0  0  0  0  0  0  0999 V2000
  -27.9779   -6.5601    0.0000 C   0  0  0  0  0  0  0  0  0  0  0  0
  -28.4796   -7.9737    0.0000 N   0  0  0  0  0  0  0  0  0  0  0  0
  -29.9547   -8.2459    0.0000 C   0  0  0  0  0  0  0  0  0  0  0  0
  -30.9280   -7.1046    0.0000 C   0  0  0  0  0  0  0  0  0  0  0  0
  -32.4031   -7.3769    0.0000 C   0  0  0  0  0  0  0  0  0  0  0  0
  -32.9048   -8.7905    0.0000 C   0  0  0  0  0  0  0  0  0  0  0  0
  -31.9315   -9.9318    0.0000 C   0  0  0  0  0  0  0  0  0  0  0  0
  -30.4564   -9.6595    0.0000 C   0  0  0  0  0  0  0  0  0  0  0  0
  -32.7162  -11.2102    0.0000 C   0  0  0  0  0  0  0  0  0  0  0  0
  -34.1745  -10.8590    0.0000 O   0  0  0  0  0  0  0  0  0  0  0  0
  -34.2911   -9.3635    0.0000 C   0  0  0  0  0  0  0  0  0  0  0  0
  -35.5695   -8.5788    0.0000 O   0  0  0  0  0  0  0  0  0  0  0  0
  -33.6302  -12.3995    0.0000 C   0  0  0  0  0  0  0  0  0  0  0  0
  -33.0572  -13.7858    0.0000 C   0  0  0  0  0  0  0  0  0  0  0  0
  -33.9712  -14.9751    0.0000 C   0  0  0  0  0  0  0  0  0  0  0  0
  -35.4582  -14.7783    0.0000 C   0  0  0  0  0  0  0  0  0  0  0  0
  -36.0313  -13.3920    0.0000 C   0  0  0  0  0  0  0  0  0  0  0  0
  -35.1172  -12.2027    0.0000 C   0  0  0  0  0  0  0  0  0  0  0  0
  -36.3723  -15.9676    0.0000 O   0  0  0  0  0  0  0  0  0  0  0  0
  -31.5702  -13.9827    0.0000 O   0  0  0  0  0  0  0  0  0  0  0  0
  -30.6562  -12.7933    0.0000 C   0  0  0  0  0  0  0  0  0  0  0  0
  -31.2292  -11.4071    0.0000 C   0  0  0  0  0  0  0  0  0  0  0  0
  -30.0478  -10.8646    0.0000 C   0  0  0  0  0  0  0  0  0  0  0  0
  -29.2547  -10.9696    0.0000 C   0  0  0  0  0  0  0  0  0  0  0  0
  -28.9491  -11.7090    0.0000 C   0  0  0  0  0  0  0  0  0  0  0  0
  -29.4365  -12.3433    0.0000 C   0  0  0  0  0  0  0  0  0  0  0  0
  -26.7681  -11.9977    0.0000 O   0  0  0  0  0  0  0  0  0  0  0  0
  -28.9512   -5.4188    0.0000 S   0  0  0  0  0  0  0  0  0  0  0  0
  -26.5028   -6.2878    0.0000 N   0  0  0  0  0  0  0  0  0  0  0  0
  -26.0010   -4.8742    0.0000 C   0  0  0  0  0  0  0  0  0  0  0  0
  -24.5259   -4.6019    0.0000 C   0  0  0  0  0  0  0  0  0  0  0  0
  -24.0242   -3.1883    0.0000 C   0  0  0  0  0  0  0  0  0  0  0  0
  -24.9975   -2.0470    0.0000 O   0  0  0  0  0  0  0  0  0  0  0  0
  -22.5491   -2.9161    0.0000 N   0  0  0  0  0  0  0  0  0  0  0  0
  -22.0474   -1.5025    0.0000 C   0  0  0  0  0  0  0  0  0  0  0  0
  -22.0593   -0.0025    0.0000 C   0  0  0  0  0  0  0  0  0  0  0  0
  -20.7663    0.7578    0.0000 C   0  0  0  0  0  0  0  0  0  0  0  0
  -20.7783    2.2578    0.0000 C   0  0  0  0  0  0  0  0  0  0  0  0
  -19.4853    3.0181    0.0000 N   0  0  0  0  0  0  0  0  0  0  0  0
  -19.4973    4.5181    0.0000 C   0  0  0  0  0  0  0  0  0  0  0  0
  -18.2043    5.2785    0.0000 N   0  0  0  0  0  0  0  0  0  0  0  0
  -20.8023    5.2577    0.0000 N   0  0  0  0  0  0  0  0  0  0  0  0
  -20.5723   -1.2302    0.0000 C   0  0  0  0  0  0  0  0  0  0  0  0
  -19.5989   -2.3715    0.0000 O   0  0  0  0  0  0  0  0  0  0  0  0
  -20.0705    0.1834    0.0000 N   0  0  0  0  0  0  0  0  0  0  0  0
  -18.5954    0.4557    0.0000 C   0  0  0  0  0  0  0  0  0  0  0  0
  -17.1162    0.2070    0.0000 C   0  0  0  0  0  0  0  0  0  0  0  0
  -16.5919   -1.1984    0.0000 C   0  0  0  0  0  0  0  0  0  0  0  0
  -15.1127   -1.4471    0.0000 C   0  0  0  0  0  0  0  0  0  0  0  0
  -14.5884   -2.8524    0.0000 N   0  0  0  0  0  0  0  0  0  0  0  0
  -13.1091   -3.1011    0.0000 C   0  0  0  0  0  0  0  0  0  0  0  0
  -12.5849   -4.5065    0.0000 N   0  0  0  0  0  0  0  0  0  0  0  0
  -12.1542   -1.9444    0.0000 N   0  0  0  0  0  0  0  0  0  0  0  0
  -18.0937    1.8693    0.0000 C   0  0  0  0  0  0  0  0  0  0  0  0
  -18.5808    2.8482    0.0000 O   0  0  0  0  0  0  0  0  0  0  0  0
  -16.6186    2.1415    0.0000 N   0  0  0  0  0  0  0  0  0  0  0  0
  -16.1169    3.5551    0.0000 C   0  0  0  0  0  0  0  0  0  0  0  0
  -14.6418    3.8274    0.0000 C   0  0  0  0  0  0  0  0  0  0  0  0
  -13.6685    2.6861    0.0000 O   0  0  0  0  0  0  0  0  0  0  0  0
  -14.1400    5.2410    0.0000 N   0  0  0  0  0  0  0  0  0  0  0  0
  -12.6650    5.5133    0.0000 C   0  0  0  0  0  0  0  0  0  0  0  0
  -11.1857    5.2646    0.0000 C   0  0  0  0  0  0  0  0  0  0  0  0
  -10.6614    3.8592    0.0000 O   0  0  0  0  0  0  0  0  0  0  0  0
  -12.1632    6.9268    0.0000 C   0  0  0  0  0  0  0  0  0  0  0  0
  -13.1365    8.0682    0.0000 O   0  0  0  0  0  0  0  0  0  0  0  0
  -10.6881    7.1991    0.0000 N   0  0  0  0  0  0  0  0  0  0  0  0
  -10.1864    8.6127    0.0000 C   0  0  0  0  0  0  0  0  0  0  0  0
  -10.1984   10.1127    0.0000 C   0  0  0  0  0  0  0  0  0  0  0  0
   -8.9054   10.8730    0.0000 C   0  0  0  0  0  0  0  0  0  0  0  0
   -8.9174   12.3730    0.0000 C   0  0  0  0  0  0  0  0  0  0  0  0
   -7.6244   13.1333    0.0000 N   0  0  0  0  0  0  0  0  0  0  0  0
   -7.6363   14.6333    0.0000 C   0  0  0  0  0  0  0  0  0  0  0  0
   -6.3433   15.3936    0.0000 N   0  0  0  0  0  0  0  0  0  0  0  0
   -8.9413   15.3729    0.0000 N   0  0  0  0  0  0  0  0  0  0  0  0
   -8.7113    8.8850    0.0000 C   0  0  0  0  0  0  0  0  0  0  0  0
   -7.7380    7.7437    0.0000 O   0  0  0  0  0  0  0  0  0  0  0  0
   -8.2095   10.2986    0.0000 N   0  0  0  0  0  0  0  0  0  0  0  0
   -9.0582   11.5354    0.0000 C   0  0  0  0  0  0  0  0  0  0  0  0
   -8.1442   12.7247    0.0000 C   0  0  0  0  0  0  0  0  0  0  0  0
   -6.7306   12.2230    0.0000 C   0  0  0  0  0  0  0  0  0  0  0  0
   -6.7710   10.7235    0.0000 C   0  0  0  0  0  0  0  0  0  0  0  0
   -5.2755   10.8401    0.0000 C   0  0  0  0  0  0  0  0  0  0  0  0
   -4.4686   12.1046    0.0000 O   0  0  0  0  0  0  0  0  0  0  0  0
   -4.4268    9.6033    0.0000 N   0  0  0  0  0  0  0  0  0  0  0  0
   -2.9314    9.7199    0.0000 C   0  0  0  0  0  0  0  0  0  0  0  0
   -1.5660   10.3410    0.0000 C   0  0  0  0  0  0  0  0  0  0  0  0
   -0.1140    9.9644    0.0000 O   0  0  0  0  0  0  0  0  0  0  0  0
   -2.0827    8.4831    0.0000 C   0  0  0  0  0  0  0  0  0  0  0  0
   -2.7294    7.1297    0.0000 O   0  0  0  0  0  0  0  0  0  0  0  0
   -0.5872    8.5997    0.0000 N   0  0  0  0  0  0  0  0  0  0  0  0
    0.2615    7.3629    0.0000 C   0  0  0  0  0  0  0  0  0  0  0  0
    1.7569    7.4795    0.0000 C   0  0  0  0  0  0  0  0  0  0  0  0
    2.4037    8.8329    0.0000 O   0  0  0  0  0  0  0  0  0  0  0  0
    2.6057    6.2427    0.0000 N   0  0  0  0  0  0  0  0  0  0  0  0
    4.1011    6.3592    0.0000 C   0  0  0  0  0  0  0  0  0  0  0  0
    5.4665    6.9803    0.0000 C   0  0  0  0  0  0  0  0  0  0  0  0
    4.9498    5.1224    0.0000 C   0  0  0  0  0  0  0  0  0  0  0  0
    4.1429    3.8580    0.0000 O   0  0  0  0  0  0  0  0  0  0  0  0
    6.4453    5.2390    0.0000 N   0  0  0  0  0  0  0  0  0  0  0  0
    7.2940    4.0022    0.0000 C   0  0  0  0  0  0  0  0  0  0  0  0
    6.9282    2.5475    0.0000 C   0  0  0  0  0  0  0  0  0  0  0  0
    7.0075    1.0496    0.0000 C   0  0  0  0  0  0  0  0  0  0  0  0
    7.5248   -0.3584    0.0000 C   0  0  0  0  0  0  0  0  0  0  0  0
    8.4340   -1.5514    0.0000 C   0  0  0  0  0  0  0  0  0  0  0  0
    5.7963    3.9192    0.0000 C   0  0  0  0  0  0  0  0  0  0  0  0
    8.0723    5.2845    0.0000 C   0  0  0  0  0  0  0  0  0  0  0  0
    7.1870    6.4954    0.0000 O   0  0  0  0  0  0  0  0  0  0  0  0
    9.1940    6.2804    0.0000 N   0  0  0  0  0  0  0  0  0  0  0  0
   10.5594    6.9014    0.0000 C   0  0  0  0  0  0  0  0  0  0  0  0
   10.9972    8.3361    0.0000 C   0  0  0  0  0  0  0  0  0  0  0  0
    9.9736    9.4326    0.0000 C   0  0  0  0  0  0  0  0  0  0  0  0
   10.4114   10.8673    0.0000 C   0  0  0  0  0  0  0  0  0  0  0  0
    9.3879   11.9638    0.0000 N   0  0  0  0  0  0  0  0  0  0  0  0
    9.8257   13.3985    0.0000 C   0  0  0  0  0  0  0  0  0  0  0  0
    8.8021   14.4950    0.0000 N   0  0  0  0  0  0  0  0  0  0  0  0
   11.2871   13.7367    0.0000 N   0  0  0  0  0  0  0  0  0  0  0  0
   12.0472    7.0924    0.0000 C   0  0  0  0  0  0  0  0  0  0  0  0
   12.0800    8.5921    0.0000 O   0  0  0  0  0  0  0  0  0  0  0  0
   13.5251    6.8364    0.0000 N   0  0  0  0  0  0  0  0  0  0  0  0
   14.8620    6.1561    0.0000 C   0  0  0  0  0  0  0  0  0  0  0  0
   16.2567    6.7083    0.0000 C   0  0  0  0  0  0  0  0  0  0  0  0
   16.4758    8.1922    0.0000 C   0  0  0  0  0  0  0  0  0  0  0  0
   17.8704    8.7444    0.0000 C   0  0  0  0  0  0  0  0  0  0  0  0
   18.0895   10.2283    0.0000 N   0  0  0  0  0  0  0  0  0  0  0  0
   19.4842   10.7805    0.0000 C   0  0  0  0  0  0  0  0  0  0  0  0
   19.7033   12.2645    0.0000 N   0  0  0  0  0  0  0  0  0  0  0  0
   20.6597    9.8488    0.0000 N   0  0  0  0  0  0  0  0  0  0  0  0
   15.9389    5.1120    0.0000 C   0  0  0  0  0  0  0  0  0  0  0  0
   17.1319    6.0213    0.0000 O   0  0  0  0  0  0  0  0  0  0  0  0
   16.6603    3.7968    0.0000 N   0  0  0  0  0  0  0  0  0  0  0  0
   16.9619    2.3274    0.0000 C   0  0  0  0  0  0  0  0  0  0  0  0
   18.2632    1.5814    0.0000 C   0  0  0  0  0  0  0  0  0  0  0  0
   19.5600    2.3353    0.0000 C   0  0  0  0  0  0  0  0  0  0  0  0
   20.8613    1.5892    0.0000 C   0  0  0  0  0  0  0  0  0  0  0  0
   22.1580    2.3431    0.0000 N   0  0  0  0  0  0  0  0  0  0  0  0
   23.4593    1.5970    0.0000 C   0  0  0  0  0  0  0  0  0  0  0  0
   24.7561    2.3509    0.0000 N   0  0  0  0  0  0  0  0  0  0  0  0
   23.4638    0.0970    0.0000 N   0  0  0  0  0  0  0  0  0  0  0  0
   16.8171    0.8345    0.0000 C   0  0  0  0  0  0  0  0  0  0  0  0
   18.2718    0.4687    0.0000 O   0  0  0  0  0  0  0  0  0  0  0  0
   16.2386   -0.5495    0.0000 N   0  0  0  0  0  0  0  0  0  0  0  0
   15.2778   -1.7015    0.0000 C   0  0  0  0  0  0  0  0  0  0  0  0
   14.0202   -2.5191    0.0000 C   0  0  0  0  0  0  0  0  0  0  0  0
   12.5775   -2.9297    0.0000 C   0  0  0  0  0  0  0  0  0  0  0  0
   11.0779   -2.8968    0.0000 C   0  0  0  0  0  0  0  0  0  0  0  0
    9.6546   -2.4233    0.0000 C   0  0  0  0  0  0  0  0  0  0  0  0
   16.7230   -2.1034    0.0000 C   0  0  0  0  0  0  0  0  0  0  0  0
   15.5059   -3.1840    0.0000 C   0  0  0  0  0  0  0  0  0  0  0  0
   14.5978   -4.3780    0.0000 O   0  0  0  0  0  0  0  0  0  0  0  0
   16.9038   -3.7278    0.0000 N   0  0  0  0  0  0  0  0  0  0  0  0
   17.1318   -5.2104    0.0000 C   0  0  0  0  0  0  0  0  0  0  0  0
   16.8390   -6.6816    0.0000 C   0  0  0  0  0  0  0  0  0  0  0  0
   15.4186   -7.1636    0.0000 C   0  0  0  0  0  0  0  0  0  0  0  0
   15.1258   -8.6347    0.0000 C   0  0  0  0  0  0  0  0  0  0  0  0
   13.7053   -9.1167    0.0000 N   0  0  0  0  0  0  0  0  0  0  0  0
   13.4125  -10.5878    0.0000 C   0  0  0  0  0  0  0  0  0  0  0  0
   11.9921  -11.0698    0.0000 N   0  0  0  0  0  0  0  0  0  0  0  0
   14.5402  -11.5770    0.0000 N   0  0  0  0  0  0  0  0  0  0  0  0
   18.5298   -5.7542    0.0000 C   0  0  0  0  0  0  0  0  0  0  0  0
   19.6997   -4.8155    0.0000 O   0  0  0  0  0  0  0  0  0  0  0  0
   18.7578   -7.2368    0.0000 N   0  0  0  0  0  0  0  0  0  0  0  0
   20.1558   -7.7806    0.0000 C   0  0  0  0  0  0  0  0  0  0  0  0
   21.6554   -7.8135    0.0000 C   0  0  0  0  0  0  0  0  0  0  0  0
   20.3838   -9.2632    0.0000 C   0  0  0  0  0  0  0  0  0  0  0  0
   19.2138  -10.2019    0.0000 O   0  0  0  0  0  0  0  0  0  0  0  0
   21.7817   -9.8070    0.0000 N   0  0  0  0  0  0  0  0  0  0  0  0
   22.0097  -11.2895    0.0000 C   0  0  0  0  0  0  0  0  0  0  0  0
   21.7170  -12.7607    0.0000 C   0  0  0  0  0  0  0  0  0  0  0  0
   23.4077  -11.8334    0.0000 C   0  0  0  0  0  0  0  0  0  0  0  0
   24.5776  -10.8946    0.0000 O   0  0  0  0  0  0  0  0  0  0  0  0
   23.6357  -13.3159    0.0000 N   0  0  0  0  0  0  0  0  0  0  0  0
   25.0337  -13.8597    0.0000 C   0  0  0  0  0  0  0  0  0  0  0  0
   26.5333  -13.8926    0.0000 C   0  0  0  0  0  0  0  0  0  0  0  0
   25.2617  -15.3423    0.0000 C   0  0  0  0  0  0  0  0  0  0  0  0
   24.0918  -16.2811    0.0000 O   0  0  0  0  0  0  0  0  0  0  0  0
   26.6596  -15.8861    0.0000 N   0  0  0  0  0  0  0  0  0  0  0  0
   26.8877  -17.3687    0.0000 C   0  0  0  0  0  0  0  0  0  0  0  0
   26.5949  -18.8398    0.0000 C   0  0  0  0  0  0  0  0  0  0  0  0
   28.2856  -17.9125    0.0000 C   0  0  0  0  0  0  0  0  0  0  0  0
   28.6927  -19.3562    0.0000 O   0  0  0  0  0  0  0  0  0  0  0  0
   29.4555  -16.9737    0.0000 O   0  0  0  0  0  0  0  0  0  0  0  0
  -27.3744   -8.9878    0.0000 H   0  0  0  0  0  0  0  0  0  0  0  0
  -30.4263   -5.6910    0.0000 H   0  0  0  0  0  0  0  0  0  0  0  0
  -33.3764   -6.2356    0.0000 H   0  0  0  0  0  0  0  0  0  0  0  0
  -29.2358  -10.5314    0.0000 H   0  0  0  0  0  0  0  0  0  0  0  0
  -33.3982  -16.3614    0.0000 H   0  0  0  0  0  0  0  0  0  0  0  0
  -37.5183  -13.1951    0.0000 H   0  0  0  0  0  0  0  0  0  0  0  0
  -35.6902  -10.8164    0.0000 H   0  0  0  0  0  0  0  0  0  0  0  0
  -37.8593  -15.7707    0.0000 H   0  0  0  0  0  0  0  0  0  0  0  0
  -30.8882   -8.8315    0.0000 H   0  0  0  0  0  0  0  0  0  0  0  0
  -27.7760   -9.3455    0.0000 H   0  0  0  0  0  0  0  0  0  0  0  0
  -28.5961  -14.3764    0.0000 H   0  0  0  0  0  0  0  0  0  0  0  0
  -26.1951  -13.3840    0.0000 H   0  0  0  0  0  0  0  0  0  0  0  0
  -25.5294   -7.4291    0.0000 H   0  0  0  0  0  0  0  0  0  0  0  0
  -26.0130   -3.3743    0.0000 H   0  0  0  0  0  0  0  0  0  0  0  0
  -27.4803   -4.6256    0.0000 H   0  0  0  0  0  0  0  0  0  0  0  0
  -23.0467   -4.8506    0.0000 H   0  0  0  0  0  0  0  0  0  0  0  0
  -24.5139   -6.1019    0.0000 H   0  0  0  0  0  0  0  0  0  0  0  0
  -21.5758   -4.0574    0.0000 H   0  0  0  0  0  0  0  0  0  0  0  0
  -23.5266   -1.2538    0.0000 H   0  0  0  0  0  0  0  0  0  0  0  0
  -22.7510    1.3285    0.0000 H   0  0  0  0  0  0  0  0  0  0  0  0
  -23.5344   -0.2748    0.0000 H   0  0  0  0  0  0  0  0  0  0  0  0
  -19.2913    1.0301    0.0000 H   0  0  0  0  0  0  0  0  0  0  0  0
  -19.6435   -0.2368    0.0000 H   0  0  0  0  0  0  0  0  0  0  0  0
  -21.3026    3.6632    0.0000 H   0  0  0  0  0  0  0  0  0  0  0  0
  -22.2756    2.1673    0.0000 H   0  0  0  0  0  0  0  0  0  0  0  0
  -18.0402    2.6163    0.0000 H   0  0  0  0  0  0  0  0  0  0  0  0
  -18.2163    6.7784    0.0000 H   0  0  0  0  0  0  0  0  0  0  0  0
  -20.8143    6.7576    0.0000 H   0  0  0  0  0  0  0  0  0  0  0  0
  -22.0953    4.4973    0.0000 H   0  0  0  0  0  0  0  0  0  0  0  0
  -20.7388    1.5263    0.0000 H   0  0  0  0  0  0  0  0  0  0  0  0
  -18.7664   -1.0346    0.0000 H   0  0  0  0  0  0  0  0  0  0  0  0
  -15.6411    0.4793    0.0000 H   0  0  0  0  0  0  0  0  0  0  0  0
  -16.7649    1.6653    0.0000 H   0  0  0  0  0  0  0  0  0  0  0  0
  -16.5799   -2.6983    0.0000 H   0  0  0  0  0  0  0  0  0  0  0  0
  -18.0228   -1.6484    0.0000 H   0  0  0  0  0  0  0  0  0  0  0  0
  -13.6376   -1.1748    0.0000 H   0  0  0  0  0  0  0  0  0  0  0  0
  -14.9417    0.0432    0.0000 H   0  0  0  0  0  0  0  0  0  0  0  0
  -15.5434   -4.0092    0.0000 H   0  0  0  0  0  0  0  0  0  0  0  0
  -11.1056   -4.7552    0.0000 H   0  0  0  0  0  0  0  0  0  0  0  0
  -10.6749   -2.1930    0.0000 H   0  0  0  0  0  0  0  0  0  0  0  0
  -12.6785   -0.5390    0.0000 H   0  0  0  0  0  0  0  0  0  0  0  0
  -15.5134    1.1274    0.0000 H   0  0  0  0  0  0  0  0  0  0  0  0
  -16.1289    5.0551    0.0000 H   0  0  0  0  0  0  0  0  0  0  0  0
  -17.5961    3.8038    0.0000 H   0  0  0  0  0  0  0  0  0  0  0  0
  -15.1134    6.3823    0.0000 H   0  0  0  0  0  0  0  0  0  0  0  0
  -12.6530    4.0133    0.0000 H   0  0  0  0  0  0  0  0  0  0  0  0
   -9.6884    5.3550    0.0000 H   0  0  0  0  0  0  0  0  0  0  0  0
  -10.8344    6.7229    0.0000 H   0  0  0  0  0  0  0  0  0  0  0  0
   -9.1822    3.6105    0.0000 H   0  0  0  0  0  0  0  0  0  0  0  0
   -9.5829    6.1850    0.0000 H   0  0  0  0  0  0  0  0  0  0  0  0
  -11.6656    8.8614    0.0000 H   0  0  0  0  0  0  0  0  0  0  0  0
  -10.8900   11.4437    0.0000 H   0  0  0  0  0  0  0  0  0  0  0  0
  -11.6734    9.8404    0.0000 H   0  0  0  0  0  0  0  0  0  0  0  0
   -7.5400   11.4941    0.0000 H   0  0  0  0  0  0  0  0  0  0  0  0
   -7.7826    9.8784    0.0000 H   0  0  0  0  0  0  0  0  0  0  0  0
   -9.6090   13.7040    0.0000 H   0  0  0  0  0  0  0  0  0  0  0  0
  -10.4145   12.4657    0.0000 H   0  0  0  0  0  0  0  0  0  0  0  0
   -6.1792   12.7315    0.0000 H   0  0  0  0  0  0  0  0  0  0  0  0
   -6.3553   16.8936    0.0000 H   0  0  0  0  0  0  0  0  0  0  0  0
   -8.9533   16.8728    0.0000 H   0  0  0  0  0  0  0  0  0  0  0  0
  -10.2343   14.6125    0.0000 H   0  0  0  0  0  0  0  0  0  0  0  0
  -10.4012   10.8672    0.0000 H   0  0  0  0  0  0  0  0  0  0  0  0
  -10.2634   12.4285    0.0000 H   0  0  0  0  0  0  0  0  0  0  0  0
   -9.3174   13.6594    0.0000 H   0  0  0  0  0  0  0  0  0  0  0  0
   -7.8442   14.1944    0.0000 H   0  0  0  0  0  0  0  0  0  0  0  0
   -6.3794   13.6813    0.0000 H   0  0  0  0  0  0  0  0  0  0  0  0
   -5.2307   12.2089    0.0000 H   0  0  0  0  0  0  0  0  0  0  0  0
   -6.4987    9.2485    0.0000 H   0  0  0  0  0  0  0  0  0  0  0  0
   -5.0736    8.2499    0.0000 H   0  0  0  0  0  0  0  0  0  0  0  0
   -3.3059   11.1724    0.0000 H   0  0  0  0  0  0  0  0  0  0  0  0
   -0.4953   11.3915    0.0000 H   0  0  0  0  0  0  0  0  0  0  0  0
   -2.4147   11.5778    0.0000 H   0  0  0  0  0  0  0  0  0  0  0  0
    1.0200   10.0900    0.0000 H   0  0  0  0  0  0  0  0  0  0  0  0
    0.2197    9.8642    0.0000 H   0  0  0  0  0  0  0  0  0  0  0  0
    0.6360    5.9104    0.0000 H   0  0  0  0  0  0  0  0  0  0  0  0
   -1.1039    6.7418    0.0000 H   0  0  0  0  0  0  0  0  0  0  0  0
    1.9589    4.8893    0.0000 H   0  0  0  0  0  0  0  0  0  0  0  0
    3.7266    7.8117    0.0000 H   0  0  0  0  0  0  0  0  0  0  0  0
    6.9536    6.7836    0.0000 H   0  0  0  0  0  0  0  0  0  0  0  0
    6.5372    8.0309    0.0000 H   0  0  0  0  0  0  0  0  0  0  0  0
    4.6178    8.2171    0.0000 H   0  0  0  0  0  0  0  0  0  0  0  0
    7.0920    6.5924    0.0000 H   0  0  0  0  0  0  0  0  0  0  0  0
    5.6479    3.3290    0.0000 H   0  0  0  0  0  0  0  0  0  0  0  0
    5.5955    1.8592    0.0000 H   0  0  0  0  0  0  0  0  0  0  0  0
    5.5195    1.2390    0.0000 H   0  0  0  0  0  0  0  0  0  0  0  0
    5.8168    0.1374    0.0000 H   0  0  0  0  0  0  0  0  0  0  0  0
    6.0267   -0.4340    0.0000 H   0  0  0  0  0  0  0  0  0  0  0  0
    6.8113   -1.6779    0.0000 H   0  0  0  0  0  0  0  0  0  0  0  0
    7.3899   -2.6283    0.0000 H   0  0  0  0  0  0  0  0  0  0  0  0
    4.9378    2.4915    0.0000 H   0  0  0  0  0  0  0  0  0  0  0  0
    4.3414    3.8152    0.0000 H   0  0  0  0  0  0  0  0  0  0  0  0
    5.4936    5.2022    0.0000 H   0  0  0  0  0  0  0  0  0  0  0  0
    8.3764    7.5380    0.0000 H   0  0  0  0  0  0  0  0  0  0  0  0
    9.3195    7.7458    0.0000 H   0  0  0  0  0  0  0  0  0  0  0  0
   12.0386    9.4156    0.0000 H   0  0  0  0  0  0  0  0  0  0  0  0
   12.4589    7.9995    0.0000 H   0  0  0  0  0  0  0  0  0  0  0  0
    8.6368   10.1129    0.0000 H   0  0  0  0  0  0  0  0  0  0  0  0
    8.9322    8.3531    0.0000 H   0  0  0  0  0  0  0  0  0  0  0  0
   11.3136   12.0657    0.0000 H   0  0  0  0  0  0  0  0  0  0  0  0
   11.8213   10.3550    0.0000 H   0  0  0  0  0  0  0  0  0  0  0  0
    7.9265   11.6256    0.0000 H   0  0  0  0  0  0  0  0  0  0  0  0
    9.2400   15.9297    0.0000 H   0  0  0  0  0  0  0  0  0  0  0  0
   11.7249   15.1714    0.0000 H   0  0  0  0  0  0  0  0  0  0  0  0
   12.3106   12.6402    0.0000 H   0  0  0  0  0  0  0  0  0  0  0  0
   13.9986    8.2597    0.0000 H   0  0  0  0  0  0  0  0  0  0  0  0
   14.7491    7.6518    0.0000 H   0  0  0  0  0  0  0  0  0  0  0  0
   17.7500    6.5671    0.0000 H   0  0  0  0  0  0  0  0  0  0  0  0
   16.9049    5.3556    0.0000 H   0  0  0  0  0  0  0  0  0  0  0  0
   16.1741    9.6616    0.0000 H   0  0  0  0  0  0  0  0  0  0  0  0
   14.9824    8.3334    0.0000 H   0  0  0  0  0  0  0  0  0  0  0  0
   19.3698    8.7863    0.0000 H   0  0  0  0  0  0  0  0  0  0  0  0
   18.3489    7.3228    0.0000 H   0  0  0  0  0  0  0  0  0  0  0  0
   16.9140   11.1600    0.0000 H   0  0  0  0  0  0  0  0  0  0  0  0
   21.0979   12.8167    0.0000 H   0  0  0  0  0  0  0  0  0  0  0  0
   22.0544   10.4010    0.0000 H   0  0  0  0  0  0  0  0  0  0  0  0
   20.4406    8.3649    0.0000 H   0  0  0  0  0  0  0  0  0  0  0  0
   18.0683    4.3141    0.0000 H   0  0  0  0  0  0  0  0  0  0  0  0
   18.0609    3.3483    0.0000 H   0  0  0  0  0  0  0  0  0  0  0  0
   19.0839    0.3258    0.0000 H   0  0  0  0  0  0  0  0  0  0  0  0
   17.6098    0.2312    0.0000 H   0  0  0  0  0  0  0  0  0  0  0  0
   20.5207    3.4872    0.0000 H   0  0  0  0  0  0  0  0  0  0  0  0
   18.7393    3.5908    0.0000 H   0  0  0  0  0  0  0  0  0  0  0  0
   21.8289    0.4430    0.0000 H   0  0  0  0  0  0  0  0  0  0  0  0
   20.0481    0.3287    0.0000 H   0  0  0  0  0  0  0  0  0  0  0  0
   22.1535    3.8431    0.0000 H   0  0  0  0  0  0  0  0  0  0  0  0
   26.0574    1.6048    0.0000 H   0  0  0  0  0  0  0  0  0  0  0  0
   24.7651   -0.6491    0.0000 H   0  0  0  0  0  0  0  0  0  0  0  0
   22.1671   -0.6569    0.0000 H   0  0  0  0  0  0  0  0  0  0  0  0
   17.5208   -1.3278    0.0000 H   0  0  0  0  0  0  0  0  0  0  0  0
   13.8011   -4.0030    0.0000 H   0  0  0  0  0  0  0  0  0  0  0  0
   15.0492   -3.6105    0.0000 H   0  0  0  0  0  0  0  0  0  0  0  0
   12.1006   -4.3518    0.0000 H   0  0  0  0  0  0  0  0  0  0  0  0
   13.2391   -4.2759    0.0000 H   0  0  0  0  0  0  0  0  0  0  0  0
   10.0610   -3.9994    0.0000 H   0  0  0  0  0  0  0  0  0  0  0  0
   11.4921   -4.3385    0.0000 H   0  0  0  0  0  0  0  0  0  0  0  0
    8.9743   -3.7602    0.0000 H   0  0  0  0  0  0  0  0  0  0  0  0
   17.4378   -3.4221    0.0000 H   0  0  0  0  0  0  0  0  0  0  0  0
   18.1931   -1.8054    0.0000 H   0  0  0  0  0  0  0  0  0  0  0  0
   17.2248   -0.6898    0.0000 H   0  0  0  0  0  0  0  0  0  0  0  0
   18.1794   -2.9387    0.0000 H   0  0  0  0  0  0  0  0  0  0  0  0
   15.6474   -4.9950    0.0000 H   0  0  0  0  0  0  0  0  0  0  0  0
   17.0671   -8.1641    0.0000 H   0  0  0  0  0  0  0  0  0  0  0  0
   18.2861   -7.0763    0.0000 H   0  0  0  0  0  0  0  0  0  0  0  0
   13.9189   -7.1307    0.0000 H   0  0  0  0  0  0  0  0  0  0  0  0
   15.0115   -5.7198    0.0000 H   0  0  0  0  0  0  0  0  0  0  0  0
   15.3538  -10.1173    0.0000 H   0  0  0  0  0  0  0  0  0  0  0  0
   16.6102   -8.8501    0.0000 H   0  0  0  0  0  0  0  0  0  0  0  0
   12.5777   -8.1276    0.0000 H   0  0  0  0  0  0  0  0  0  0  0  0
   11.6993  -12.5410    0.0000 H   0  0  0  0  0  0  0  0  0  0  0  0
   14.2474  -13.0481    0.0000 H   0  0  0  0  0  0  0  0  0  0  0  0
   15.9606  -11.0950    0.0000 H   0  0  0  0  0  0  0  0  0  0  0  0
   17.7110   -8.3112    0.0000 H   0  0  0  0  0  0  0  0  0  0  0  0
   20.4486   -6.3095    0.0000 H   0  0  0  0  0  0  0  0  0  0  0  0
   22.8002   -8.7827    0.0000 H   0  0  0  0  0  0  0  0  0  0  0  0
   23.0758   -7.3315    0.0000 H   0  0  0  0  0  0  0  0  0  0  0  0
   21.4274   -6.3309    0.0000 H   0  0  0  0  0  0  0  0  0  0  0  0
   23.0574   -9.0178    0.0000 H   0  0  0  0  0  0  0  0  0  0  0  0
   20.5101  -11.2567    0.0000 H   0  0  0  0  0  0  0  0  0  0  0  0
   20.2965  -13.2427    0.0000 H   0  0  0  0  0  0  0  0  0  0  0  0
   21.7626  -14.2600    0.0000 H   0  0  0  0  0  0  0  0  0  0  0  0
   23.1641  -13.1555    0.0000 H   0  0  0  0  0  0  0  0  0  0  0  0
   22.5889  -14.3903    0.0000 H   0  0  0  0  0  0  0  0  0  0  0  0
   25.3265  -12.3886    0.0000 H   0  0  0  0  0  0  0  0  0  0  0  0
   27.6781  -14.8618    0.0000 H   0  0  0  0  0  0  0  0  0  0  0  0
   27.9538  -13.4106    0.0000 H   0  0  0  0  0  0  0  0  0  0  0  0
   26.3053  -12.4101    0.0000 H   0  0  0  0  0  0  0  0  0  0  0  0
   27.9353  -15.0970    0.0000 H   0  0  0  0  0  0  0  0  0  0  0  0
   25.3880  -17.3358    0.0000 H   0  0  0  0  0  0  0  0  0  0  0  0
   25.1744  -19.3218    0.0000 H   0  0  0  0  0  0  0  0  0  0  0  0
   26.8229  -20.3224    0.0000 H   0  0  0  0  0  0  0  0  0  0  0  0
   28.0793  -19.0553    0.0000 H   0  0  0  0  0  0  0  0  0  0  0  0
   30.8535  -17.5175    0.0000 H   0  0  0  0  0  0  0  0  0  0  0  0
  1  2  1  0
  2  3  1  0
  3  4  2  0
  4  5  1  0
  5  6  2  0
  6  7  1  0
  7  8  2  0
  7  9  1  0
  9 10  1  0
 10 11  1  0
 11 12  2  0
  9 13  1  0
 13 14  1  0
 14 15  2  0
 15 16  1  0
 16 17  2  0
 17 18  1  0
 16 19  1  0
 14 20  1  0
 20 21  1  0
 21 22  2  0
 22 23  1  0
 23 24  2  0
 24 25  1  0
 25 26  2  0
 25 27  1  0
  1 28  2  0
  1 29  1  0
 29 30  1  0
 30 31  1  0
 31 32  1  0
 32 33  2  0
 32 34  1  0
 34 35  1  0
 35 36  1  0
 36 37  1  0
 37 38  1  0
 38 39  1  0
 39 40  1  0
 40 41  2  3
 40 42  1  0
 35 43  1  0
 43 44  2  0
 43 45  1  0
 45 46  1  0
 46 47  1  0
 47 48  1  0
 48 49  1  0
 49 50  1  0
 50 51  1  0
 51 52  2  3
 51 53  1  0
 46 54  1  0
 54 55  2  0
 54 56  1  0
 56 57  1  0
 57 58  1  0
 58 59  2  0
 58 60  1  0
 60 61  1  0
 61 62  1  0
 62 63  1  0
 61 64  1  0
 64 65  2  0
 64 66  1  0
 66 67  1  0
 67 68  1  0
 68 69  1  0
 69 70  1  0
 70 71  1  0
 71 72  1  0
 72 73  2  3
 72 74  1  0
 67 75  1  0
 75 76  2  0
 75 77  1  0
 77 78  1  0
 78 79  1  0
 79 80  1  0
 80 81  1  0
 81 82  1  0
 82 83  2  0
 82 84  1  0
 84 85  1  0
 85 86  1  0
 86 87  1  0
 85 88  1  0
 88 89  2  0
 88 90  1  0
 90 91  1  0
 91 92  1  0
 92 93  2  0
 92 94  1  0
 94 95  1  0
 95 96  1  0
 95 97  1  0
 97 98  2  0
 97 99  1  0
100 99  1  6
100101  1  0
101102  1  0
102103  1  0
103104  1  0
100105  1  0
100106  1  0
106107  2  0
106108  1  0
108109  1  0
109110  1  0
110111  1  0
111112  1  0
112113  1  0
113114  1  0
114115  2  3
114116  1  0
109117  1  0
117118  2  0
117119  1  0
119120  1  0
120121  1  0
121122  1  0
122123  1  0
123124  1  0
124125  1  0
125126  2  3
125127  1  0
120128  1  0
128129  2  0
128130  1  0
130131  1  0
131132  1  0
132133  1  0
133134  1  0
134135  1  0
135136  1  0
136137  2  3
136138  1  0
131139  1  0
139140  2  0
139141  1  0
141142  1  0
142143  1  0
143144  1  0
144145  1  0
145146  1  0
142147  1  0
142148  1  6
148149  2  0
148150  1  0
150151  1  0
151152  1  0
152153  1  0
153154  1  0
154155  1  0
155156  1  0
156157  2  3
156158  1  0
151159  1  0
159160  2  0
159161  1  0
161162  1  0
162163  1  0
162164  1  0
164165  2  0
164166  1  0
166167  1  0
167168  1  0
167169  1  0
169170  2  0
169171  1  0
171172  1  0
172173  1  0
172174  1  0
174175  2  0
174176  1  0
176177  1  0
177178  1  0
177179  1  0
179180  2  0
179181  1  0
  8  3  1  0
 81 77  1  0
 11  6  1  0
104146  2  0
 18 13  2  0
 22  9  1  0
 26 21  1  0
  2182  1  0
  4183  1  0
  5184  1  0
  8185  1  0
 15186  1  0
 17187  1  0
 18188  1  0
 19189  1  0
 23190  1  0
 24191  1  0
 26192  1  0
 27193  1  0
 29194  1  0
 30195  1  0
 30196  1  0
 31197  1  0
 31198  1  0
 34199  1  0
 35200  1  1
 36201  1  0
 36202  1  0
 37203  1  0
 37204  1  0
 38205  1  0
 38206  1  0
 39207  1  0
 41208  1  0
 42209  1  0
 42210  1  0
 45211  1  0
 46212  1  6
 47213  1  0
 47214  1  0
 48215  1  0
 48216  1  0
 49217  1  0
 49218  1  0
 50219  1  0
 52220  1  0
 53221  1  0
 53222  1  0
 56223  1  0
 57224  1  0
 57225  1  0
 60226  1  0
 61227  1  6
 62228  1  0
 62229  1  0
 63230  1  0
 66231  1  0
 67232  1  1
 68233  1  0
 68234  1  0
 69235  1  0
 69236  1  0
 70237  1  0
 70238  1  0
 71239  1  0
 73240  1  0
 74241  1  0
 74242  1  0
 78243  1  0
 78244  1  0
 79245  1  0
 79246  1  0
 80247  1  0
 80248  1  0
 81249  1  0
 84250  1  0
 85251  1  1
 86252  1  0
 86253  1  0
 87254  1  0
 90255  1  0
 91256  1  0
 91257  1  0
 94258  1  0
 95259  1  1
 96260  1  0
 96261  1  0
 96262  1  0
 99263  1  0
101264  1  0
101265  1  0
102266  1  0
102267  1  0
103268  1  0
103269  1  0
104270  1  0
105271  1  0
105272  1  0
105273  1  0
108274  1  0
109275  1  1
110276  1  0
110277  1  0
111278  1  0
111279  1  0
112280  1  0
112281  1  0
113282  1  0
115283  1  0
116284  1  0
116285  1  0
119286  1  0
120287  1  1
121288  1  0
121289  1  0
122290  1  0
122291  1  0
123292  1  0
123293  1  0
124294  1  0
126295  1  0
127296  1  0
127297  1  0
130298  1  0
131299  1  1
132300  1  0
132301  1  0
133302  1  0
133303  1  0
134304  1  0
134305  1  0
135306  1  0
137307  1  0
138308  1  0
138309  1  0
141310  1  0
143311  1  0
143312  1  0
144313  1  0
144314  1  0
145315  1  0
145316  1  0
146317  1  0
147318  1  0
147319  1  0
147320  1  0
150321  1  0
151322  1  6
152323  1  0
152324  1  0
153325  1  0
153326  1  0
154327  1  0
154328  1  0
155329  1  0
157330  1  0
158331  1  0
158332  1  0
161333  1  0
162334  1  1
163335  1  0
163336  1  0
163337  1  0
166338  1  0
167339  1  6
168340  1  0
168341  1  0
168342  1  0
171343  1  0
172344  1  1
173345  1  0
173346  1  0
173347  1  0
176348  1  0
177349  1  6
178350  1  0
178351  1  0
178352  1  0
181353  1  0
M  END
