
     RDKit          2D

337346  0  0  0  0  0  0  0  0999 V2000
  -28.2868   -0.8373    0.0000 C   0  0  0  0  0  0  0  0  0  0  0  0
  -28.8864   -2.2122    0.0000 N   0  0  0  0  0  0  0  0  0  0  0  0
  -30.3769   -2.3805    0.0000 C   0  0  0  0  0  0  0  0  0  0  0  0
  -31.2679   -1.1738    0.0000 C   0  0  0  0  0  0  0  0  0  0  0  0
  -32.7584   -1.3420    0.0000 C   0  0  0  0  0  0  0  0  0  0  0  0
  -33.3580   -2.7170    0.0000 C   0  0  0  0  0  0  0  0  0  0  0  0
  -32.4670   -3.9237    0.0000 C   0  0  0  0  0  0  0  0  0  0  0  0
  -30.9765   -3.7554    0.0000 C   0  0  0  0  0  0  0  0  0  0  0  0
  -33.3394   -5.1439    0.0000 C   0  0  0  0  0  0  0  0  0  0  0  0
  -34.7695   -4.6914    0.0000 O   0  0  0  0  0  0  0  0  0  0  0  0
  -34.7810   -3.1914    0.0000 C   0  0  0  0  0  0  0  0  0  0  0  0
  -36.0012   -2.3191    0.0000 O   0  0  0  0  0  0  0  0  0  0  0  0
  -34.3345   -6.2663    0.0000 C   0  0  0  0  0  0  0  0  0  0  0  0
  -33.8600   -7.6893    0.0000 C   0  0  0  0  0  0  0  0  0  0  0  0
  -34.8551   -8.8117    0.0000 C   0  0  0  0  0  0  0  0  0  0  0  0
  -36.3247   -8.5111    0.0000 C   0  0  0  0  0  0  0  0  0  0  0  0
  -36.7992   -7.0881    0.0000 C   0  0  0  0  0  0  0  0  0  0  0  0
  -35.8041   -5.9657    0.0000 C   0  0  0  0  0  0  0  0  0  0  0  0
  -37.3198   -9.6335    0.0000 O   0  0  0  0  0  0  0  0  0  0  0  0
  -32.3905   -7.9899    0.0000 O   0  0  0  0  0  0  0  0  0  0  0  0
  -31.3953   -6.8675    0.0000 C   0  0  0  0  0  0  0  0  0  0  0  0
  -31.8698   -5.4445    0.0000 C   0  0  0  0  0  0  0  0  0  0  0  0
  -30.6533   -4.9862    0.0000 C   0  0  0  0  0  0  0  0  0  0  0  0
  -29.8695   -5.1465    0.0000 C   0  0  0  0  0  0  0  0  0  0  0  0
  -29.6165   -5.9055    0.0000 C   0  0  0  0  0  0  0  0  0  0  0  0
  -30.1472   -6.5041    0.0000 C   0  0  0  0  0  0  0  0  0  0  0  0
  -27.4611   -6.3463    0.0000 O   0  0  0  0  0  0  0  0  0  0  0  0
  -29.1778    0.3694    0.0000 S   0  0  0  0  0  0  0  0  0  0  0  0
  -26.7963   -0.6690    0.0000 N   0  0  0  0  0  0  0  0  0  0  0  0
  -26.1967    0.7059    0.0000 C   0  0  0  0  0  0  0  0  0  0  0  0
  -24.7062    0.8741    0.0000 C   0  0  0  0  0  0  0  0  0  0  0  0
  -24.1066    2.2491    0.0000 O   0  0  0  0  0  0  0  0  0  0  0  0
  -22.6161    2.4173    0.0000 C   0  0  0  0  0  0  0  0  0  0  0  0
  -22.0165    3.7923    0.0000 C   0  0  0  0  0  0  0  0  0  0  0  0
  -20.5260    3.9605    0.0000 O   0  0  0  0  0  0  0  0  0  0  0  0
  -19.9264    5.3355    0.0000 C   0  0  0  0  0  0  0  0  0  0  0  0
  -18.4359    5.5037    0.0000 C   0  0  0  0  0  0  0  0  0  0  0  0
  -17.6986    4.1974    0.0000 O   0  0  0  0  0  0  0  0  0  0  0  0
  -17.8363    6.8787    0.0000 N   0  0  0  0  0  0  0  0  0  0  0  0
  -16.3458    7.0469    0.0000 C   0  0  0  0  0  0  0  0  0  0  0  0
  -14.8876    6.6952    0.0000 C   0  0  0  0  0  0  0  0  0  0  0  0
  -14.4631    5.2566    0.0000 C   0  0  0  0  0  0  0  0  0  0  0  0
  -15.3775    4.0675    0.0000 C   0  0  0  0  0  0  0  0  0  0  0  0
  -14.5292    2.8304    0.0000 N   0  0  0  0  0  0  0  0  0  0  0  0
  -13.0905    3.2549    0.0000 C   0  0  0  0  0  0  0  0  0  0  0  0
  -11.8123    2.4698    0.0000 C   0  0  0  0  0  0  0  0  0  0  0  0
  -10.4934    3.1842    0.0000 C   0  0  0  0  0  0  0  0  0  0  0  0
  -10.4525    4.6836    0.0000 C   0  0  0  0  0  0  0  0  0  0  0  0
  -11.7307    5.4687    0.0000 C   0  0  0  0  0  0  0  0  0  0  0  0
  -13.0496    4.7544    0.0000 C   0  0  0  0  0  0  0  0  0  0  0  0
  -15.7462    8.4219    0.0000 C   0  0  0  0  0  0  0  0  0  0  0  0
  -16.6372    9.6286    0.0000 O   0  0  0  0  0  0  0  0  0  0  0  0
  -14.2557    8.5901    0.0000 N   0  0  0  0  0  0  0  0  0  0  0  0
  -13.5156    9.8949    0.0000 C   0  0  0  0  0  0  0  0  0  0  0  0
  -12.0461    9.5943    0.0000 C   0  0  0  0  0  0  0  0  0  0  0  0
  -11.8778    8.1038    0.0000 C   0  0  0  0  0  0  0  0  0  0  0  0
  -13.2434    7.4832    0.0000 C   0  0  0  0  0  0  0  0  0  0  0  0
  -12.4835    6.1899    0.0000 C   0  0  0  0  0  0  0  0  0  0  0  0
  -12.6973    5.4220    0.0000 O   0  0  0  0  0  0  0  0  0  0  0  0
  -10.9835    6.2014    0.0000 N   0  0  0  0  0  0  0  0  0  0  0  0
  -10.2236    4.9082    0.0000 C   0  0  0  0  0  0  0  0  0  0  0  0
   -9.9518    3.4330    0.0000 C   0  0  0  0  0  0  0  0  0  0  0  0
   -8.5383    2.9308    0.0000 C   0  0  0  0  0  0  0  0  0  0  0  0
   -8.2665    1.4556    0.0000 C   0  0  0  0  0  0  0  0  0  0  0  0
   -7.0166    0.6264    0.0000 O   0  0  0  0  0  0  0  0  0  0  0  0
   -9.6097    0.7878    0.0000 O   0  0  0  0  0  0  0  0  0  0  0  0
   -8.7236    4.9197    0.0000 C   0  0  0  0  0  0  0  0  0  0  0  0
   -8.1482    6.3049    0.0000 O   0  0  0  0  0  0  0  0  0  0  0  0
   -7.9637    3.6264    0.0000 N   0  0  0  0  0  0  0  0  0  0  0  0
   -6.4637    3.6380    0.0000 C   0  0  0  0  0  0  0  0  0  0  0  0
   -5.4799    4.7702    0.0000 C   0  0  0  0  0  0  0  0  0  0  0  0
   -4.2060    5.5622    0.0000 C   0  0  0  0  0  0  0  0  0  0  0  0
   -2.7552    5.9434    0.0000 C   0  0  0  0  0  0  0  0  0  0  0  0
   -1.2566    5.8802    0.0000 C   0  0  0  0  0  0  0  0  0  0  0  0
   -7.2525    4.9138    0.0000 C   0  0  0  0  0  0  0  0  0  0  0  0
   -7.0701    2.2660    0.0000 C   0  0  0  0  0  0  0  0  0  0  0  0
   -8.5333    1.9354    0.0000 O   0  0  0  0  0  0  0  0  0  0  0  0
   -7.2452    0.7763    0.0000 N   0  0  0  0  0  0  0  0  0  0  0  0
   -6.9734   -0.6989    0.0000 C   0  0  0  0  0  0  0  0  0  0  0  0
   -7.8996   -1.8788    0.0000 C   0  0  0  0  0  0  0  0  0  0  0  0
   -9.3846   -1.6666    0.0000 C   0  0  0  0  0  0  0  0  0  0  0  0
   -8.3664   -3.3043    0.0000 C   0  0  0  0  0  0  0  0  0  0  0  0
   -9.8344   -3.6128    0.0000 C   0  0  0  0  0  0  0  0  0  0  0  0
   -6.2789   -2.0284    0.0000 C   0  0  0  0  0  0  0  0  0  0  0  0
   -7.3731   -3.0544    0.0000 O   0  0  0  0  0  0  0  0  0  0  0  0
   -5.2233   -3.0942    0.0000 N   0  0  0  0  0  0  0  0  0  0  0  0
   -3.9005   -3.8014    0.0000 C   0  0  0  0  0  0  0  0  0  0  0  0
   -3.5555   -5.2612    0.0000 C   0  0  0  0  0  0  0  0  0  0  0  0
   -4.6472   -6.2899    0.0000 C   0  0  0  0  0  0  0  0  0  0  0  0
   -4.3023   -7.7496    0.0000 C   0  0  0  0  0  0  0  0  0  0  0  0
   -6.0249   -6.8831    0.0000 C   0  0  0  0  0  0  0  0  0  0  0  0
   -2.4280   -4.0873    0.0000 C   0  0  0  0  0  0  0  0  0  0  0  0
   -2.4913   -5.5860    0.0000 O   0  0  0  0  0  0  0  0  0  0  0  0
   -0.9367   -3.9265    0.0000 N   0  0  0  0  0  0  0  0  0  0  0  0
    0.4410   -3.3333    0.0000 C   0  0  0  0  0  0  0  0  0  0  0  0
    1.7974   -3.9737    0.0000 C   0  0  0  0  0  0  0  0  0  0  0  0
    1.9210   -5.4686    0.0000 C   0  0  0  0  0  0  0  0  0  0  0  0
    3.2774   -6.1091    0.0000 O   0  0  0  0  0  0  0  0  0  0  0  0
    0.6882   -6.3231    0.0000 O   0  0  0  0  0  0  0  0  0  0  0  0
    1.5827   -2.3603    0.0000 C   0  0  0  0  0  0  0  0  0  0  0  0
    2.7149   -3.3442    0.0000 O   0  0  0  0  0  0  0  0  0  0  0  0
    2.3868   -1.0941    0.0000 N   0  0  0  0  0  0  0  0  0  0  0  0
    2.7820    0.3529    0.0000 C   0  0  0  0  0  0  0  0  0  0  0  0
    2.7331    1.8521    0.0000 C   0  0  0  0  0  0  0  0  0  0  0  0
    2.2444    3.2703    0.0000 C   0  0  0  0  0  0  0  0  0  0  0  0
    1.3595    4.4815    0.0000 C   0  0  0  0  0  0  0  0  0  0  0  0
    0.1569    5.3780    0.0000 C   0  0  0  0  0  0  0  0  0  0  0  0
    3.9384   -0.6024    0.0000 C   0  0  0  0  0  0  0  0  0  0  0  0
    4.1284    1.0141    0.0000 C   0  0  0  0  0  0  0  0  0  0  0  0
    4.5881    2.4419    0.0000 O   0  0  0  0  0  0  0  0  0  0  0  0
    5.3742    0.1787    0.0000 N   0  0  0  0  0  0  0  0  0  0  0  0
    6.7206    0.8399    0.0000 C   0  0  0  0  0  0  0  0  0  0  0  0
    7.7597    1.9217    0.0000 C   0  0  0  0  0  0  0  0  0  0  0  0
    9.2161    1.5627    0.0000 C   0  0  0  0  0  0  0  0  0  0  0  0
   10.3626    2.5300    0.0000 C   0  0  0  0  0  0  0  0  0  0  0  0
   11.6368    1.7385    0.0000 N   0  0  0  0  0  0  0  0  0  0  0  0
   11.2778    0.2821    0.0000 C   0  0  0  0  0  0  0  0  0  0  0  0
    9.7817    0.1734    0.0000 N   0  0  0  0  0  0  0  0  0  0  0  0
    7.9664    0.0044    0.0000 C   0  0  0  0  0  0  0  0  0  0  0  0
    7.8658   -1.4922    0.0000 O   0  0  0  0  0  0  0  0  0  0  0  0
    9.3128    0.6656    0.0000 N   0  0  0  0  0  0  0  0  0  0  0  0
   10.5586   -0.1699    0.0000 C   0  0  0  0  0  0  0  0  0  0  0  0
   11.4436   -1.3810    0.0000 C   0  0  0  0  0  0  0  0  0  0  0  0
   10.8371   -2.7530    0.0000 C   0  0  0  0  0  0  0  0  0  0  0  0
   11.9050    0.4913    0.0000 C   0  0  0  0  0  0  0  0  0  0  0  0
   12.3648    1.9191    0.0000 O   0  0  0  0  0  0  0  0  0  0  0  0
   13.1509   -0.3441    0.0000 N   0  0  0  0  0  0  0  0  0  0  0  0
   14.4973    0.3171    0.0000 C   0  0  0  0  0  0  0  0  0  0  0  0
   15.5364    1.3989    0.0000 C   0  0  0  0  0  0  0  0  0  0  0  0
   16.9928    1.0399    0.0000 C   0  0  0  0  0  0  0  0  0  0  0  0
   18.0319    2.1217    0.0000 C   0  0  0  0  0  0  0  0  0  0  0  0
   19.4883    1.7627    0.0000 N   0  0  0  0  0  0  0  0  0  0  0  0
   20.5274    2.8445    0.0000 C   0  0  0  0  0  0  0  0  0  0  0  0
   21.9291    2.3107    0.0000 N   0  0  0  0  0  0  0  0  0  0  0  0
   20.1100    4.2853    0.0000 N   0  0  0  0  0  0  0  0  0  0  0  0
   15.7431   -0.5184    0.0000 C   0  0  0  0  0  0  0  0  0  0  0  0
   15.6425   -2.0150    0.0000 O   0  0  0  0  0  0  0  0  0  0  0  0
   17.0895    0.1428    0.0000 N   0  0  0  0  0  0  0  0  0  0  0  0
   18.3353   -0.6926    0.0000 C   0  0  0  0  0  0  0  0  0  0  0  0
   19.2202   -1.9038    0.0000 C   0  0  0  0  0  0  0  0  0  0  0  0
   18.6138   -3.2758    0.0000 C   0  0  0  0  0  0  0  0  0  0  0  0
   19.4988   -4.4869    0.0000 C   0  0  0  0  0  0  0  0  0  0  0  0
   18.8923   -5.8589    0.0000 N   0  0  0  0  0  0  0  0  0  0  0  0
   19.7773   -7.0700    0.0000 C   0  0  0  0  0  0  0  0  0  0  0  0
   19.1709   -8.4420    0.0000 N   0  0  0  0  0  0  0  0  0  0  0  0
   21.2686   -6.9092    0.0000 N   0  0  0  0  0  0  0  0  0  0  0  0
   19.6817   -0.0315    0.0000 C   0  0  0  0  0  0  0  0  0  0  0  0
   20.1415    1.3963    0.0000 O   0  0  0  0  0  0  0  0  0  0  0  0
   20.9275   -0.8669    0.0000 N   0  0  0  0  0  0  0  0  0  0  0  0
   22.2739   -0.2057    0.0000 C   0  0  0  0  0  0  0  0  0  0  0  0
   23.3130    0.8761    0.0000 C   0  0  0  0  0  0  0  0  0  0  0  0
   24.8023    0.6973    0.0000 C   0  0  0  0  0  0  0  0  0  0  0  0
   23.5198   -1.0412    0.0000 C   0  0  0  0  0  0  0  0  0  0  0  0
   23.4191   -2.5378    0.0000 O   0  0  0  0  0  0  0  0  0  0  0  0
   24.8662   -0.3800    0.0000 N   0  0  0  0  0  0  0  0  0  0  0  0
   26.1120   -1.2154    0.0000 C   0  0  0  0  0  0  0  0  0  0  0  0
   26.9969   -2.4266    0.0000 C   0  0  0  0  0  0  0  0  0  0  0  0
   26.3905   -3.7985    0.0000 C   0  0  0  0  0  0  0  0  0  0  0  0
   27.2754   -5.0097    0.0000 S   0  0  0  0  0  0  0  0  0  0  0  0
   26.6690   -6.3817    0.0000 C   0  0  0  0  0  0  0  0  0  0  0  0
   27.4584   -0.5543    0.0000 C   0  0  0  0  0  0  0  0  0  0  0  0
   27.5590    0.9424    0.0000 O   0  0  0  0  0  0  0  0  0  0  0  0
   28.7042   -1.3897    0.0000 N   0  0  0  0  0  0  0  0  0  0  0  0
   30.0506   -0.7285    0.0000 C   0  0  0  0  0  0  0  0  0  0  0  0
   31.0897    0.3533    0.0000 C   0  0  0  0  0  0  0  0  0  0  0  0
   32.5461   -0.0057    0.0000 C   0  0  0  0  0  0  0  0  0  0  0  0
   33.5852    1.0761    0.0000 C   0  0  0  0  0  0  0  0  0  0  0  0
   35.0416    0.7171    0.0000 N   0  0  0  0  0  0  0  0  0  0  0  0
   36.0807    1.7990    0.0000 C   0  0  0  0  0  0  0  0  0  0  0  0
   37.5371    1.4400    0.0000 N   0  0  0  0  0  0  0  0  0  0  0  0
   35.6634    3.2397    0.0000 N   0  0  0  0  0  0  0  0  0  0  0  0
   31.2964   -1.5640    0.0000 C   0  0  0  0  0  0  0  0  0  0  0  0
   32.7134   -1.0718    0.0000 O   0  0  0  0  0  0  0  0  0  0  0  0
   31.1958   -3.0606    0.0000 O   0  0  0  0  0  0  0  0  0  0  0  0
  -27.8550   -3.3014    0.0000 H   0  0  0  0  0  0  0  0  0  0  0  0
  -30.6683    0.2012    0.0000 H   0  0  0  0  0  0  0  0  0  0  0  0
  -33.6494   -0.1353    0.0000 H   0  0  0  0  0  0  0  0  0  0  0  0
  -29.8200   -4.7107    0.0000 H   0  0  0  0  0  0  0  0  0  0  0  0
  -34.3807  -10.2347    0.0000 H   0  0  0  0  0  0  0  0  0  0  0  0
  -38.2687   -6.7875    0.0000 H   0  0  0  0  0  0  0  0  0  0  0  0
  -36.2785   -4.5427    0.0000 H   0  0  0  0  0  0  0  0  0  0  0  0
  -38.7894   -9.3329    0.0000 H   0  0  0  0  0  0  0  0  0  0  0  0
  -31.3492   -2.8992    0.0000 H   0  0  0  0  0  0  0  0  0  0  0  0
  -28.2806   -3.6300    0.0000 H   0  0  0  0  0  0  0  0  0  0  0  0
  -29.4513   -8.5911    0.0000 H   0  0  0  0  0  0  0  0  0  0  0  0
  -26.9866   -7.7693    0.0000 H   0  0  0  0  0  0  0  0  0  0  0  0
  -25.9053   -1.8758    0.0000 H   0  0  0  0  0  0  0  0  0  0  0  0
  -26.1036    2.2030    0.0000 H   0  0  0  0  0  0  0  0  0  0  0  0
  -27.6549    1.0576    0.0000 H   0  0  0  0  0  0  0  0  0  0  0  0
  -23.3017    0.3473    0.0000 H   0  0  0  0  0  0  0  0  0  0  0  0
  -24.7993   -0.6230    0.0000 H   0  0  0  0  0  0  0  0  0  0  0  0
  -21.1579    2.0656    0.0000 H   0  0  0  0  0  0  0  0  0  0  0  0
  -22.5260    0.9201    0.0000 H   0  0  0  0  0  0  0  0  0  0  0  0
  -22.1065    5.2896    0.0000 H   0  0  0  0  0  0  0  0  0  0  0  0
  -23.4747    4.1440    0.0000 H   0  0  0  0  0  0  0  0  0  0  0  0
  -19.8333    6.8326    0.0000 H   0  0  0  0  0  0  0  0  0  0  0  0
  -21.3308    5.8623    0.0000 H   0  0  0  0  0  0  0  0  0  0  0  0
  -18.7273    8.0854    0.0000 H   0  0  0  0  0  0  0  0  0  0  0  0
  -16.4389    5.5498    0.0000 H   0  0  0  0  0  0  0  0  0  0  0  0
  -13.4006    6.4978    0.0000 H   0  0  0  0  0  0  0  0  0  0  0  0
  -14.4349    8.1253    0.0000 H   0  0  0  0  0  0  0  0  0  0  0  0
  -16.8707    3.9253    0.0000 H   0  0  0  0  0  0  0  0  0  0  0  0
  -15.0313    1.4170    0.0000 H   0  0  0  0  0  0  0  0  0  0  0  0
  -11.8532    0.9704    0.0000 H   0  0  0  0  0  0  0  0  0  0  0  0
   -9.4432    2.1131    0.0000 H   0  0  0  0  0  0  0  0  0  0  0  0
   -8.9999    5.0576    0.0000 H   0  0  0  0  0  0  0  0  0  0  0  0
  -11.5073    6.9520    0.0000 H   0  0  0  0  0  0  0  0  0  0  0  0
  -14.8906   10.4945    0.0000 H   0  0  0  0  0  0  0  0  0  0  0  0
  -13.0631   11.3250    0.0000 H   0  0  0  0  0  0  0  0  0  0  0  0
  -11.9007   11.0872    0.0000 H   0  0  0  0  0  0  0  0  0  0  0  0
  -10.5461    9.6058    0.0000 H   0  0  0  0  0  0  0  0  0  0  0  0
  -10.4131    8.4269    0.0000 H   0  0  0  0  0  0  0  0  0  0  0  0
  -10.9248    6.9454    0.0000 H   0  0  0  0  0  0  0  0  0  0  0  0
  -14.1987    6.3267    0.0000 H   0  0  0  0  0  0  0  0  0  0  0  0
  -10.2435    7.5062    0.0000 H   0  0  0  0  0  0  0  0  0  0  0  0
  -11.6291    4.3843    0.0000 H   0  0  0  0  0  0  0  0  0  0  0  0
  -10.2009    1.9538    0.0000 H   0  0  0  0  0  0  0  0  0  0  0  0
  -11.4517    3.4215    0.0000 H   0  0  0  0  0  0  0  0  0  0  0  0
   -7.0802    2.5790    0.0000 H   0  0  0  0  0  0  0  0  0  0  0  0
   -7.7756    4.2224    0.0000 H   0  0  0  0  0  0  0  0  0  0  0  0
   -9.1007   -0.9657    0.0000 H   0  0  0  0  0  0  0  0  0  0  0  0
   -8.3660    2.1814    0.0000 H   0  0  0  0  0  0  0  0  0  0  0  0
   -6.8533    5.3732    0.0000 H   0  0  0  0  0  0  0  0  0  0  0  0
   -5.6778    6.2571    0.0000 H   0  0  0  0  0  0  0  0  0  0  0  0
   -5.2126    6.6742    0.0000 H   0  0  0  0  0  0  0  0  0  0  0  0
   -4.1390    7.0607    0.0000 H   0  0  0  0  0  0  0  0  0  0  0  0
   -3.5503    7.2154    0.0000 H   0  0  0  0  0  0  0  0  0  0  0  0
   -2.0812    7.2835    0.0000 H   0  0  0  0  0  0  0  0  0  0  0  0
   -0.9706    7.3527    0.0000 H   0  0  0  0  0  0  0  0  0  0  0  0
   -6.5727    6.4347    0.0000 H   0  0  0  0  0  0  0  0  0  0  0  0
   -7.9996    6.1666    0.0000 H   0  0  0  0  0  0  0  0  0  0  0  0
   -8.5280    4.5810    0.0000 H   0  0  0  0  0  0  0  0  0  0  0  0
   -8.7273    0.5450    0.0000 H   0  0  0  0  0  0  0  0  0  0  0  0
   -8.3752   -0.1651    0.0000 H   0  0  0  0  0  0  0  0  0  0  0  0
   -6.7873   -2.8851    0.0000 H   0  0  0  0  0  0  0  0  0  0  0  0
  -10.4477   -2.7248    0.0000 H   0  0  0  0  0  0  0  0  0  0  0  0
  -10.7074   -0.9594    0.0000 H   0  0  0  0  0  0  0  0  0  0  0  0
   -9.1174   -0.1944    0.0000 H   0  0  0  0  0  0  0  0  0  0  0  0
   -8.3175   -4.8035    0.0000 H   0  0  0  0  0  0  0  0  0  0  0  0
   -6.9185   -3.6959    0.0000 H   0  0  0  0  0  0  0  0  0  0  0  0
  -10.3012   -5.0383    0.0000 H   0  0  0  0  0  0  0  0  0  0  0  0
  -11.3193   -3.4006    0.0000 H   0  0  0  0  0  0  0  0  0  0  0  0
  -10.2446   -2.1700    0.0000 H   0  0  0  0  0  0  0  0  0  0  0  0
   -6.1198   -4.2968    0.0000 H   0  0  0  0  0  0  0  0  0  0  0  0
   -5.1919   -4.5645    0.0000 H   0  0  0  0  0  0  0  0  0  0  0  0
   -2.5854   -6.4052    0.0000 H   0  0  0  0  0  0  0  0  0  0  0  0
   -2.0752   -5.0189    0.0000 H   0  0  0  0  0  0  0  0  0  0  0  0
   -5.6174   -5.1458    0.0000 H   0  0  0  0  0  0  0  0  0  0  0  0
   -5.2604   -8.9037    0.0000 H   0  0  0  0  0  0  0  0  0  0  0  0
   -3.4788   -9.0034    0.0000 H   0  0  0  0  0  0  0  0  0  0  0  0
   -2.8625   -7.3288    0.0000 H   0  0  0  0  0  0  0  0  0  0  0  0
   -6.3803   -8.3404    0.0000 H   0  0  0  0  0  0  0  0  0  0  0  0
   -7.5225   -6.9694    0.0000 H   0  0  0  0  0  0  0  0  0  0  0  0
   -6.3699   -5.4233    0.0000 H   0  0  0  0  0  0  0  0  0  0  0  0
   -0.5554   -5.3773    0.0000 H   0  0  0  0  0  0  0  0  0  0  0  0
    0.4151   -4.8331    0.0000 H   0  0  0  0  0  0  0  0  0  0  0  0
    3.2911   -4.1116    0.0000 H   0  0  0  0  0  0  0  0  0  0  0  0
    2.5310   -2.6653    0.0000 H   0  0  0  0  0  0  0  0  0  0  0  0
    0.8117   -7.8180    0.0000 H   0  0  0  0  0  0  0  0  0  0  0  0
    3.7587   -1.7005    0.0000 H   0  0  0  0  0  0  0  0  0  0  0  0
    3.8248    2.8808    0.0000 H   0  0  0  0  0  0  0  0  0  0  0  0
    4.2169    1.6326    0.0000 H   0  0  0  0  0  0  0  0  0  0  0  0
    3.1380    4.4752    0.0000 H   0  0  0  0  0  0  0  0  0  0  0  0
    3.7270    3.4980    0.0000 H   0  0  0  0  0  0  0  0  0  0  0  0
    1.6820    5.9464    0.0000 H   0  0  0  0  0  0  0  0  0  0  0  0
    2.7789    4.9666    0.0000 H   0  0  0  0  0  0  0  0  0  0  0  0
    0.8641    6.7008    0.0000 H   0  0  0  0  0  0  0  0  0  0  0  0
    5.4289   -0.4342    0.0000 H   0  0  0  0  0  0  0  0  0  0  0  0
    4.5350   -1.9786    0.0000 H   0  0  0  0  0  0  0  0  0  0  0  0
    3.0661   -1.8227    0.0000 H   0  0  0  0  0  0  0  0  0  0  0  0
    5.4567   -1.3190    0.0000 H   0  0  0  0  0  0  0  0  0  0  0  0
    5.8357    2.0510    0.0000 H   0  0  0  0  0  0  0  0  0  0  0  0
    8.3661    3.2936    0.0000 H   0  0  0  0  0  0  0  0  0  0  0  0
    6.5139    2.7571    0.0000 H   0  0  0  0  0  0  0  0  0  0  0  0
   10.2539    4.0260    0.0000 H   0  0  0  0  0  0  0  0  0  0  0  0
   13.0260    2.3042    0.0000 H   0  0  0  0  0  0  0  0  0  0  0  0
   12.3776   -0.7379    0.0000 H   0  0  0  0  0  0  0  0  0  0  0  0
    9.7726    2.0934    0.0000 H   0  0  0  0  0  0  0  0  0  0  0  0
    9.3954   -1.1169    0.0000 H   0  0  0  0  0  0  0  0  0  0  0  0
   12.5782   -2.3621    0.0000 H   0  0  0  0  0  0  0  0  0  0  0  0
   12.8014   -0.7435    0.0000 H   0  0  0  0  0  0  0  0  0  0  0  0
   11.7221   -3.9641    0.0000 H   0  0  0  0  0  0  0  0  0  0  0  0
    9.7981   -3.8348    0.0000 H   0  0  0  0  0  0  0  0  0  0  0  0
    9.4988   -2.0756    0.0000 H   0  0  0  0  0  0  0  0  0  0  0  0
   13.2334   -1.8418    0.0000 H   0  0  0  0  0  0  0  0  0  0  0  0
   13.6123    1.5282    0.0000 H   0  0  0  0  0  0  0  0  0  0  0  0
   15.9710    2.8345    0.0000 H   0  0  0  0  0  0  0  0  0  0  0  0
   14.2905    2.2343    0.0000 H   0  0  0  0  0  0  0  0  0  0  0  0
   18.2386    0.2045    0.0000 H   0  0  0  0  0  0  0  0  0  0  0  0
   17.1016   -0.4561    0.0000 H   0  0  0  0  0  0  0  0  0  0  0  0
   18.6383    3.4937    0.0000 H   0  0  0  0  0  0  0  0  0  0  0  0
   16.8972    3.1028    0.0000 H   0  0  0  0  0  0  0  0  0  0  0  0
   20.2418    0.4658    0.0000 H   0  0  0  0  0  0  0  0  0  0  0  0
   23.0228    3.5674    0.0000 H   0  0  0  0  0  0  0  0  0  0  0  0
   21.1491    5.3671    0.0000 H   0  0  0  0  0  0  0  0  0  0  0  0
   18.6536    4.6443    0.0000 H   0  0  0  0  0  0  0  0  0  0  0  0
   17.5493    1.5706    0.0000 H   0  0  0  0  0  0  0  0  0  0  0  0
   17.1721   -1.6397    0.0000 H   0  0  0  0  0  0  0  0  0  0  0  0
   20.4660   -2.7392    0.0000 H   0  0  0  0  0  0  0  0  0  0  0  0
   20.4902   -1.1056    0.0000 H   0  0  0  0  0  0  0  0  0  0  0  0
   17.5747   -4.3576    0.0000 H   0  0  0  0  0  0  0  0  0  0  0  0
   17.2755   -2.5984    0.0000 H   0  0  0  0  0  0  0  0  0  0  0  0
   20.7446   -5.3223    0.0000 H   0  0  0  0  0  0  0  0  0  0  0  0
   20.6620   -3.5398    0.0000 H   0  0  0  0  0  0  0  0  0  0  0  0
   17.4010   -6.0197    0.0000 H   0  0  0  0  0  0  0  0  0  0  0  0
   20.0558   -9.6531    0.0000 H   0  0  0  0  0  0  0  0  0  0  0  0
   22.1536   -8.1204    0.0000 H   0  0  0  0  0  0  0  0  0  0  0  0
   21.8751   -5.5373    0.0000 H   0  0  0  0  0  0  0  0  0  0  0  0
   21.0101   -2.3646    0.0000 H   0  0  0  0  0  0  0  0  0  0  0  0
   21.3890    1.0054    0.0000 H   0  0  0  0  0  0  0  0  0  0  0  0
   23.9195    2.2480    0.0000 H   0  0  0  0  0  0  0  0  0  0  0  0
   21.9747    1.5534    0.0000 H   0  0  0  0  0  0  0  0  0  0  0  0
   25.8085    1.5989    0.0000 H   0  0  0  0  0  0  0  0  0  0  0  0
   26.0153   -0.3183    0.0000 H   0  0  0  0  0  0  0  0  0  0  0  0
   24.8783   -0.9789    0.0000 H   0  0  0  0  0  0  0  0  0  0  0  0
   25.1485    1.0932    0.0000 H   0  0  0  0  0  0  0  0  0  0  0  0
   24.9488   -2.1625    0.0000 H   0  0  0  0  0  0  0  0  0  0  0  0
   28.1316   -3.4077    0.0000 H   0  0  0  0  0  0  0  0  0  0  0  0
   28.2669   -1.6284    0.0000 H   0  0  0  0  0  0  0  0  0  0  0  0
   25.2273   -4.7456    0.0000 H   0  0  0  0  0  0  0  0  0  0  0  0
   25.0521   -3.1212    0.0000 H   0  0  0  0  0  0  0  0  0  0  0  0
   27.5540   -7.5928    0.0000 H   0  0  0  0  0  0  0  0  0  0  0  0
   25.6299   -7.4635    0.0000 H   0  0  0  0  0  0  0  0  0  0  0  0
   25.3307   -5.7043    0.0000 H   0  0  0  0  0  0  0  0  0  0  0  0
   28.7868   -2.8874    0.0000 H   0  0  0  0  0  0  0  0  0  0  0  0
   29.1657    0.4826    0.0000 H   0  0  0  0  0  0  0  0  0  0  0  0
   31.5244    1.7889    0.0000 H   0  0  0  0  0  0  0  0  0  0  0  0
   29.8439    1.1887    0.0000 H   0  0  0  0  0  0  0  0  0  0  0  0
   33.7919   -0.8411    0.0000 H   0  0  0  0  0  0  0  0  0  0  0  0
   32.4718   -1.5038    0.0000 H   0  0  0  0  0  0  0  0  0  0  0  0
   34.1916    2.4481    0.0000 H   0  0  0  0  0  0  0  0  0  0  0  0
   32.4505    2.0572    0.0000 H   0  0  0  0  0  0  0  0  0  0  0  0
   35.4589   -0.7236    0.0000 H   0  0  0  0  0  0  0  0  0  0  0  0
   38.5762    2.5218    0.0000 H   0  0  0  0  0  0  0  0  0  0  0  0
   36.7025    4.3215    0.0000 H   0  0  0  0  0  0  0  0  0  0  0  0
   34.2070    3.5987    0.0000 H   0  0  0  0  0  0  0  0  0  0  0  0
   32.4416   -3.8960    0.0000 H   0  0  0  0  0  0  0  0  0  0  0  0
  1  2  1  0
  2  3  1  0
  3  4  2  0
  4  5  1  0
  5  6  2  0
  6  7  1  0
  7  8  2  0
  7  9  1  0
  9 10  1  0
 10 11  1  0
 11 12  2  0
  9 13  1  0
 13 14  1  0
 14 15  2  0
 15 16  1  0
 16 17  2  0
 17 18  1  0
 16 19  1  0
 14 20  1  0
 20 21  1  0
 21 22  2  0
 22 23  1  0
 23 24  2  0
 24 25  1  0
 25 26  2  0
 25 27  1  0
  1 28  2  0
  1 29  1  0
 29 30  1  0
 30 31  1  0
 31 32  1  0
 32 33  1  0
 33 34  1  0
 34 35  1  0
 35 36  1  0
 36 37  1  0
 37 38  2  0
 37 39  1  0
 39 40  1  0
 40 41  1  0
 41 42  1  0
 42 43  2  0
 43 44  1  0
 44 45  1  0
 45 46  2  0
 46 47  1  0
 47 48  2  0
 48 49  1  0
 49 50  2  0
 40 51  1  0
 51 52  2  0
 51 53  1  0
 53 54  1  0
 54 55  1  0
 55 56  1  0
 56 57  1  0
 57 58  1  0
 58 59  2  0
 58 60  1  0
 60 61  1  0
 61 62  1  0
 62 63  1  0
 63 64  1  0
 64 65  2  0
 64 66  1  0
 61 67  1  0
 67 68  2  0
 67 69  1  0
 70 69  1  1
 70 71  1  0
 71 72  1  0
 72 73  1  0
 73 74  1  0
 70 75  1  0
 70 76  1  0
 76 77  2  0
 76 78  1  0
 78 79  1  0
 79 80  1  0
 80 81  1  0
 80 82  1  0
 82 83  1  0
 79 84  1  0
 84 85  2  0
 84 86  1  0
 86 87  1  0
 87 88  1  0
 88 89  1  0
 89 90  1  0
 89 91  1  0
 87 92  1  0
 92 93  2  0
 92 94  1  0
 94 95  1  0
 95 96  1  0
 96 97  1  0
 97 98  2  0
 97 99  1  0
 95100  1  0
100101  2  0
100102  1  0
102103  1  0
103104  1  0
104105  1  0
105106  1  0
106107  1  0
103108  1  0
103109  1  1
109110  2  0
109111  1  0
111112  1  0
112113  1  0
113114  1  0
114115  2  0
115116  1  0
116117  1  0
117118  2  0
112119  1  0
119120  2  0
119121  1  0
121122  1  0
122123  1  0
123124  1  0
122125  1  0
125126  2  0
125127  1  0
127128  1  0
128129  1  0
129130  1  0
130131  1  0
131132  1  0
132133  1  0
133134  2  3
133135  1  0
128136  1  0
136137  2  0
136138  1  0
138139  1  0
139140  1  0
140141  1  0
141142  1  0
142143  1  0
143144  1  0
144145  2  3
144146  1  0
139147  1  0
147148  2  0
147149  1  0
149150  1  0
150151  1  0
151152  1  0
150153  1  0
153154  2  0
153155  1  0
155156  1  0
156157  1  0
157158  1  0
158159  1  0
159160  1  0
156161  1  0
161162  2  0
161163  1  0
163164  1  0
164165  1  0
165166  1  0
166167  1  0
167168  1  0
168169  1  0
169170  2  3
169171  1  0
164172  1  0
172173  2  0
172174  1  0
  8  3  1  0
 50 42  1  0
 57 53  1  0
118114  1  0
 11  6  1  0
 50 45  1  0
 74107  2  0
 18 13  2  0
 22  9  1  0
 26 21  1  0
  2175  1  0
  4176  1  0
  5177  1  0
  8178  1  0
 15179  1  0
 17180  1  0
 18181  1  0
 19182  1  0
 23183  1  0
 24184  1  0
 26185  1  0
 27186  1  0
 29187  1  0
 30188  1  0
 30189  1  0
 31190  1  0
 31191  1  0
 33192  1  0
 33193  1  0
 34194  1  0
 34195  1  0
 36196  1  0
 36197  1  0
 39198  1  0
 40199  1  6
 41200  1  0
 41201  1  0
 43202  1  0
 44203  1  0
 46204  1  0
 47205  1  0
 48206  1  0
 49207  1  0
 54208  1  0
 54209  1  0
 55210  1  0
 55211  1  0
 56212  1  0
 56213  1  0
 57214  1  0
 60215  1  0
 61216  1  6
 62217  1  0
 62218  1  0
 63219  1  0
 63220  1  0
 66221  1  0
 69222  1  0
 71223  1  0
 71224  1  0
 72225  1  0
 72226  1  0
 73227  1  0
 73228  1  0
 74229  1  0
 75230  1  0
 75231  1  0
 75232  1  0
 78233  1  0
 79234  1  6
 80235  1  1
 81236  1  0
 81237  1  0
 81238  1  0
 82239  1  0
 82240  1  0
 83241  1  0
 83242  1  0
 83243  1  0
 86244  1  0
 87245  1  6
 88246  1  0
 88247  1  0
 89248  1  0
 90249  1  0
 90250  1  0
 90251  1  0
 91252  1  0
 91253  1  0
 91254  1  0
 94255  1  0
 95256  1  6
 96257  1  0
 96258  1  0
 99259  1  0
102260  1  0
104261  1  0
104262  1  0
105263  1  0
105264  1  0
106265  1  0
106266  1  0
107267  1  0
108268  1  0
108269  1  0
108270  1  0
111271  1  0
112272  1  1
113273  1  0
113274  1  0
115275  1  0
116276  1  0
117277  1  0
121278  1  0
122279  1  6
123280  1  0
123281  1  0
124282  1  0
124283  1  0
124284  1  0
127285  1  0
128286  1  1
129287  1  0
129288  1  0
130289  1  0
130290  1  0
131291  1  0
131292  1  0
132293  1  0
134294  1  0
135295  1  0
135296  1  0
138297  1  0
139298  1  6
140299  1  0
140300  1  0
141301  1  0
141302  1  0
142303  1  0
142304  1  0
143305  1  0
145306  1  0
146307  1  0
146308  1  0
149309  1  0
150310  1  1
151311  1  0
151312  1  0
152313  1  0
152314  1  0
152315  1  0
155316  1  0
156317  1  6
157318  1  0
157319  1  0
158320  1  0
158321  1  0
160322  1  0
160323  1  0
160324  1  0
163325  1  0
164326  1  1
165327  1  0
165328  1  0
166329  1  0
166330  1  0
167331  1  0
167332  1  0
168333  1  0
170334  1  0
171335  1  0
171336  1  0
174337  1  0
M  END
