
     RDKit          2D

191194  0  0  0  0  0  0  0  0999 V2000
  -15.4128    8.0304    0.0000 N   0  0  0  0  0  0  0  0  0  0  0  0
  -14.0272    7.4558    0.0000 C   0  0  0  0  0  0  0  0  0  0  0  0
  -13.8319    5.9686    0.0000 C   0  0  0  0  0  0  0  0  0  0  0  0
  -12.4463    5.3940    0.0000 C   0  0  0  0  0  0  0  0  0  0  0  0
  -11.3761    6.4450    0.0000 O   0  0  0  0  0  0  0  0  0  0  0  0
  -12.2511    3.9068    0.0000 N   0  0  0  0  0  0  0  0  0  0  0  0
  -10.8655    3.3323    0.0000 C   0  0  0  0  0  0  0  0  0  0  0  0
  -10.5403    4.7966    0.0000 C   0  0  0  0  0  0  0  0  0  0  0  0
   -9.1096    5.2471    0.0000 C   0  0  0  0  0  0  0  0  0  0  0  0
   -8.7843    6.7114    0.0000 C   0  0  0  0  0  0  0  0  0  0  0  0
   -7.3536    7.1619    0.0000 N   0  0  0  0  0  0  0  0  0  0  0  0
   -9.8899    7.7252    0.0000 O   0  0  0  0  0  0  0  0  0  0  0  0
   -9.7600    2.3185    0.0000 C   0  0  0  0  0  0  0  0  0  0  0  0
   -8.5313    2.8779    0.0000 O   0  0  0  0  0  0  0  0  0  0  0  0
  -10.0852    0.8541    0.0000 N   0  0  0  0  0  0  0  0  0  0  0  0
   -8.9796   -0.1597    0.0000 C   0  0  0  0  0  0  0  0  0  0  0  0
   -8.1732    1.1051    0.0000 C   0  0  0  0  0  0  0  0  0  0  0  0
   -7.6719    2.5189    0.0000 O   0  0  0  0  0  0  0  0  0  0  0  0
   -6.6747    1.0391    0.0000 C   0  0  0  0  0  0  0  0  0  0  0  0
   -8.2875   -1.4904    0.0000 C   0  0  0  0  0  0  0  0  0  0  0  0
   -6.7890   -1.5564    0.0000 O   0  0  0  0  0  0  0  0  0  0  0  0
   -9.0939   -2.7552    0.0000 N   0  0  0  0  0  0  0  0  0  0  0  0
   -8.4018   -4.0860    0.0000 C   0  0  0  0  0  0  0  0  0  0  0  0
   -9.8326   -4.5365    0.0000 C   0  0  0  0  0  0  0  0  0  0  0  0
  -10.9381   -3.5227    0.0000 C   0  0  0  0  0  0  0  0  0  0  0  0
  -10.6129   -2.0584    0.0000 C   0  0  0  0  0  0  0  0  0  0  0  0
  -11.7184   -1.0446    0.0000 C   0  0  0  0  0  0  0  0  0  0  0  0
  -13.1492   -1.4951    0.0000 C   0  0  0  0  0  0  0  0  0  0  0  0
  -13.4744   -2.9594    0.0000 C   0  0  0  0  0  0  0  0  0  0  0  0
  -12.3689   -3.9732    0.0000 C   0  0  0  0  0  0  0  0  0  0  0  0
   -7.2963   -5.0998    0.0000 C   0  0  0  0  0  0  0  0  0  0  0  0
   -7.5627   -5.8511    0.0000 O   0  0  0  0  0  0  0  0  0  0  0  0
   -5.8655   -4.6493    0.0000 N   0  0  0  0  0  0  0  0  0  0  0  0
   -4.7600   -5.6631    0.0000 C   0  0  0  0  0  0  0  0  0  0  0  0
   -5.9504   -6.5758    0.0000 C   0  0  0  0  0  0  0  0  0  0  0  0
   -7.3957   -6.1744    0.0000 O   0  0  0  0  0  0  0  0  0  0  0  0
   -3.3744   -6.2376    0.0000 C   0  0  0  0  0  0  0  0  0  0  0  0
   -3.5449   -7.7279    0.0000 O   0  0  0  0  0  0  0  0  0  0  0  0
   -2.1840   -5.3249    0.0000 N   0  0  0  0  0  0  0  0  0  0  0  0
   -0.7984   -5.8995    0.0000 C   0  0  0  0  0  0  0  0  0  0  0  0
   -1.6049   -7.1643    0.0000 C   0  0  0  0  0  0  0  0  0  0  0  0
   -3.1034   -7.0983    0.0000 C   0  0  0  0  0  0  0  0  0  0  0  0
   -3.9098   -8.3631    0.0000 O   0  0  0  0  0  0  0  0  0  0  0  0
   -4.0970   -5.9745    0.0000 O   0  0  0  0  0  0  0  0  0  0  0  0
    0.7001   -5.9655    0.0000 C   0  0  0  0  0  0  0  0  0  0  0  0
    1.2249   -7.3707    0.0000 O   0  0  0  0  0  0  0  0  0  0  0  0
    1.5065   -4.7007    0.0000 N   0  0  0  0  0  0  0  0  0  0  0  0
    3.0051   -4.7667    0.0000 C   0  0  0  0  0  0  0  0  0  0  0  0
    3.9855   -5.9020    0.0000 C   0  0  0  0  0  0  0  0  0  0  0  0
    5.2950   -6.6335    0.0000 C   0  0  0  0  0  0  0  0  0  0  0  0
    6.7757   -6.8730    0.0000 C   0  0  0  0  0  0  0  0  0  0  0  0
    8.2491   -6.5916    0.0000 C   0  0  0  0  0  0  0  0  0  0  0  0
    2.1913   -6.0267    0.0000 C   0  0  0  0  0  0  0  0  0  0  0  0
    2.4721   -3.3646    0.0000 C   0  0  0  0  0  0  0  0  0  0  0  0
    0.9755   -3.4642    0.0000 O   0  0  0  0  0  0  0  0  0  0  0  0
    2.4509   -1.8647    0.0000 N   0  0  0  0  0  0  0  0  0  0  0  0
    2.9439   -0.4480    0.0000 C   0  0  0  0  0  0  0  0  0  0  0  0
    1.4478   -0.5565    0.0000 C   0  0  0  0  0  0  0  0  0  0  0  0
    0.6059    0.6850    0.0000 C   0  0  0  0  0  0  0  0  0  0  0  0
    1.1153    2.0958    0.0000 C   0  0  0  0  0  0  0  0  0  0  0  0
   -0.0690    3.0163    0.0000 N   0  0  0  0  0  0  0  0  0  0  0  0
   -1.3104    2.1744    0.0000 C   0  0  0  0  0  0  0  0  0  0  0  0
   -2.7668    2.5335    0.0000 C   0  0  0  0  0  0  0  0  0  0  0  0
   -3.8060    1.4519    0.0000 C   0  0  0  0  0  0  0  0  0  0  0  0
   -3.3889    0.0111    0.0000 C   0  0  0  0  0  0  0  0  0  0  0  0
   -1.9326   -0.3481    0.0000 C   0  0  0  0  0  0  0  0  0  0  0  0
   -0.8933    0.7335    0.0000 C   0  0  0  0  0  0  0  0  0  0  0  0
    3.8917    0.7146    0.0000 C   0  0  0  0  0  0  0  0  0  0  0  0
    3.0570    1.9609    0.0000 O   0  0  0  0  0  0  0  0  0  0  0  0
    5.1800    1.4829    0.0000 N   0  0  0  0  0  0  0  0  0  0  0  0
    6.6534    1.7643    0.0000 C   0  0  0  0  0  0  0  0  0  0  0  0
    5.8114    3.0057    0.0000 C   0  0  0  0  0  0  0  0  0  0  0  0
    6.4656    4.3556    0.0000 C   0  0  0  0  0  0  0  0  0  0  0  0
    5.6236    5.5970    0.0000 C   0  0  0  0  0  0  0  0  0  0  0  0
    6.2778    6.9468    0.0000 C   0  0  0  0  0  0  0  0  0  0  0  0
    5.4358    8.1883    0.0000 N   0  0  0  0  0  0  0  0  0  0  0  0
    8.1341    1.5248    0.0000 C   0  0  0  0  0  0  0  0  0  0  0  0
    8.6271    2.9414    0.0000 O   0  0  0  0  0  0  0  0  0  0  0  0
    9.4436    0.7932    0.0000 N   0  0  0  0  0  0  0  0  0  0  0  0
   10.4240   -0.3421    0.0000 C   0  0  0  0  0  0  0  0  0  0  0  0
   10.9570   -1.7442    0.0000 C   0  0  0  0  0  0  0  0  0  0  0  0
   10.9782   -3.2440    0.0000 C   0  0  0  0  0  0  0  0  0  0  0  0
   10.4852   -4.6607    0.0000 C   0  0  0  0  0  0  0  0  0  0  0  0
    9.5374   -5.8233    0.0000 C   0  0  0  0  0  0  0  0  0  0  0  0
   11.9194   -0.2249    0.0000 C   0  0  0  0  0  0  0  0  0  0  0  0
   11.0781    1.0078    0.0000 C   0  0  0  0  0  0  0  0  0  0  0  0
   10.3938    2.3426    0.0000 O   0  0  0  0  0  0  0  0  0  0  0  0
   12.5742    1.1162    0.0000 N   0  0  0  0  0  0  0  0  0  0  0  0
   13.2284    2.4661    0.0000 C   0  0  0  0  0  0  0  0  0  0  0  0
   13.3814    3.9583    0.0000 C   0  0  0  0  0  0  0  0  0  0  0  0
   14.7501    4.5718    0.0000 C   0  0  0  0  0  0  0  0  0  0  0  0
   14.9032    6.0640    0.0000 C   0  0  0  0  0  0  0  0  0  0  0  0
   16.2462    4.6802    0.0000 C   0  0  0  0  0  0  0  0  0  0  0  0
   14.7244    2.5745    0.0000 C   0  0  0  0  0  0  0  0  0  0  0  0
   15.5382    3.8346    0.0000 O   0  0  0  0  0  0  0  0  0  0  0  0
   15.5664    1.3331    0.0000 O   0  0  0  0  0  0  0  0  0  0  0  0
  -15.6080    9.5176    0.0000 H   0  0  0  0  0  0  0  0  0  0  0  0
  -16.6032    7.1177    0.0000 H   0  0  0  0  0  0  0  0  0  0  0  0
  -13.7020    8.9202    0.0000 H   0  0  0  0  0  0  0  0  0  0  0  0
  -12.5286    7.3898    0.0000 H   0  0  0  0  0  0  0  0  0  0  0  0
  -15.3305    6.0346    0.0000 H   0  0  0  0  0  0  0  0  0  0  0  0
  -14.1572    4.5043    0.0000 H   0  0  0  0  0  0  0  0  0  0  0  0
  -13.4415    2.9941    0.0000 H   0  0  0  0  0  0  0  0  0  0  0  0
  -11.6719    2.0675    0.0000 H   0  0  0  0  0  0  0  0  0  0  0  0
  -10.5528    6.2965    0.0000 H   0  0  0  0  0  0  0  0  0  0  0  0
  -11.9783    5.2232    0.0000 H   0  0  0  0  0  0  0  0  0  0  0  0
   -7.6110    5.1811    0.0000 H   0  0  0  0  0  0  0  0  0  0  0  0
   -8.9143    3.7599    0.0000 H   0  0  0  0  0  0  0  0  0  0  0  0
   -7.0284    8.6263    0.0000 H   0  0  0  0  0  0  0  0  0  0  0  0
   -6.2481    6.1481    0.0000 H   0  0  0  0  0  0  0  0  0  0  0  0
  -11.5602    0.5814    0.0000 H   0  0  0  0  0  0  0  0  0  0  0  0
  -10.1700   -1.0724    0.0000 H   0  0  0  0  0  0  0  0  0  0  0  0
   -9.3786    1.9979    0.0000 H   0  0  0  0  0  0  0  0  0  0  0  0
   -6.4877    3.1692    0.0000 H   0  0  0  0  0  0  0  0  0  0  0  0
   -5.8682    2.3039    0.0000 H   0  0  0  0  0  0  0  0  0  0  0  0
   -5.2891    0.4646    0.0000 H   0  0  0  0  0  0  0  0  0  0  0  0
   -6.9999   -0.4252    0.0000 H   0  0  0  0  0  0  0  0  0  0  0  0
  -10.5320   -2.3286    0.0000 H   0  0  0  0  0  0  0  0  0  0  0  0
   -7.2115   -3.1733    0.0000 H   0  0  0  0  0  0  0  0  0  0  0  0
  -11.0229   -5.4492    0.0000 H   0  0  0  0  0  0  0  0  0  0  0  0
   -9.1404   -5.8673    0.0000 H   0  0  0  0  0  0  0  0  0  0  0  0
   -9.1822   -1.6079    0.0000 H   0  0  0  0  0  0  0  0  0  0  0  0
  -11.5741    0.4484    0.0000 H   0  0  0  0  0  0  0  0  0  0  0  0
  -14.2547   -0.4813    0.0000 H   0  0  0  0  0  0  0  0  0  0  0  0
  -14.9051   -3.4100    0.0000 H   0  0  0  0  0  0  0  0  0  0  0  0
  -12.6941   -5.4376    0.0000 H   0  0  0  0  0  0  0  0  0  0  0  0
   -5.5403   -3.1850    0.0000 H   0  0  0  0  0  0  0  0  0  0  0  0
   -3.9536   -4.3983    0.0000 H   0  0  0  0  0  0  0  0  0  0  0  0
   -6.7568   -7.8406    0.0000 H   0  0  0  0  0  0  0  0  0  0  0  0
   -4.8449   -7.5896    0.0000 H   0  0  0  0  0  0  0  0  0  0  0  0
   -8.5264   -6.9139    0.0000 H   0  0  0  0  0  0  0  0  0  0  0  0
   -2.3793   -3.8377    0.0000 H   0  0  0  0  0  0  0  0  0  0  0  0
   -0.4732   -4.4352    0.0000 H   0  0  0  0  0  0  0  0  0  0  0  0
   -1.9301   -8.6286    0.0000 H   0  0  0  0  0  0  0  0  0  0  0  0
   -0.2193   -7.7388    0.0000 H   0  0  0  0  0  0  0  0  0  0  0  0
    0.6574   -3.4642    0.0000 H   0  0  0  0  0  0  0  0  0  0  0  0
    3.8324   -7.3942    0.0000 H   0  0  0  0  0  0  0  0  0  0  0  0
    2.6203   -6.5235    0.0000 H   0  0  0  0  0  0  0  0  0  0  0  0
    5.4815   -8.1219    0.0000 H   0  0  0  0  0  0  0  0  0  0  0  0
    4.2247   -7.6845    0.0000 H   0  0  0  0  0  0  0  0  0  0  0  0
    7.6177   -8.1144    0.0000 H   0  0  0  0  0  0  0  0  0  0  0  0
    6.1295   -8.2267    0.0000 H   0  0  0  0  0  0  0  0  0  0  0  0
    8.7821   -7.9938    0.0000 H   0  0  0  0  0  0  0  0  0  0  0  0
    0.9426   -6.5424    0.0000 H   0  0  0  0  0  0  0  0  0  0  0  0
    2.3907   -7.5961    0.0000 H   0  0  0  0  0  0  0  0  0  0  0  0
    3.5083   -7.0676    0.0000 H   0  0  0  0  0  0  0  0  0  0  0  0
    0.9701   -1.6252    0.0000 H   0  0  0  0  0  0  0  0  0  0  0  0
    2.2518    0.8827    0.0000 H   0  0  0  0  0  0  0  0  0  0  0  0
    0.0791   -1.1700    0.0000 H   0  0  0  0  0  0  0  0  0  0  0  0
    1.4515   -2.0565    0.0000 H   0  0  0  0  0  0  0  0  0  0  0  0
    2.4946    2.6854    0.0000 H   0  0  0  0  0  0  0  0  0  0  0  0
   -0.0205    4.5155    0.0000 H   0  0  0  0  0  0  0  0  0  0  0  0
   -3.1839    3.9744    0.0000 H   0  0  0  0  0  0  0  0  0  0  0  0
   -5.2078    1.9859    0.0000 H   0  0  0  0  0  0  0  0  0  0  0  0
   -4.4282   -1.0706    0.0000 H   0  0  0  0  0  0  0  0  0  0  0  0
   -1.5155   -1.7890    0.0000 H   0  0  0  0  0  0  0  0  0  0  0  0
    4.6470    2.8850    0.0000 H   0  0  0  0  0  0  0  0  0  0  0  0
    7.6079    2.9213    0.0000 H   0  0  0  0  0  0  0  0  0  0  0  0
    4.4976    3.7296    0.0000 H   0  0  0  0  0  0  0  0  0  0  0  0
    4.5142    2.2525    0.0000 H   0  0  0  0  0  0  0  0  0  0  0  0
    7.6612    5.2613    0.0000 H   0  0  0  0  0  0  0  0  0  0  0  0
    7.7793    3.6317    0.0000 H   0  0  0  0  0  0  0  0  0  0  0  0
    4.3098    6.3208    0.0000 H   0  0  0  0  0  0  0  0  0  0  0  0
    4.4279    4.6913    0.0000 H   0  0  0  0  0  0  0  0  0  0  0  0
    7.3541    7.9916    0.0000 H   0  0  0  0  0  0  0  0  0  0  0  0
    7.5915    6.2230    0.0000 H   0  0  0  0  0  0  0  0  0  0  0  0
    6.0900    9.5381    0.0000 H   0  0  0  0  0  0  0  0  0  0  0  0
    4.2201    9.0669    0.0000 H   0  0  0  0  0  0  0  0  0  0  0  0
    4.2401    7.2825    0.0000 H   0  0  0  0  0  0  0  0  0  0  0  0
   10.2427    2.0627    0.0000 H   0  0  0  0  0  0  0  0  0  0  0  0
   12.1526   -0.8385    0.0000 H   0  0  0  0  0  0  0  0  0  0  0  0
   12.3426   -2.3187    0.0000 H   0  0  0  0  0  0  0  0  0  0  0  0
   12.4116   -2.8019    0.0000 H   0  0  0  0  0  0  0  0  0  0  0  0
   12.1991   -4.1155    0.0000 H   0  0  0  0  0  0  0  0  0  0  0  0
   11.9833   -4.7354    0.0000 H   0  0  0  0  0  0  0  0  0  0  0  0
   11.1773   -5.9915    0.0000 H   0  0  0  0  0  0  0  0  0  0  0  0
   10.5178   -6.9586    0.0000 H   0  0  0  0  0  0  0  0  0  0  0  0
   12.9666    0.6287    0.0000 H   0  0  0  0  0  0  0  0  0  0  0  0
   13.2054   -1.1462    0.0000 H   0  0  0  0  0  0  0  0  0  0  0  0
   12.2093   -1.8783    0.0000 H   0  0  0  0  0  0  0  0  0  0  0  0
   13.5612   -0.0133    0.0000 H   0  0  0  0  0  0  0  0  0  0  0  0
   11.7854    2.8759    0.0000 H   0  0  0  0  0  0  0  0  0  0  0  0
   12.8402    5.3572    0.0000 H   0  0  0  0  0  0  0  0  0  0  0  0
   11.8853    3.8498    0.0000 H   0  0  0  0  0  0  0  0  0  0  0  0
   15.6137    3.3454    0.0000 H   0  0  0  0  0  0  0  0  0  0  0  0
   16.1869    6.8398    0.0000 H   0  0  0  0  0  0  0  0  0  0  0  0
   14.5366    7.5185    0.0000 H   0  0  0  0  0  0  0  0  0  0  0  0
   13.4050    6.1388    0.0000 H   0  0  0  0  0  0  0  0  0  0  0  0
   17.0600    5.9403    0.0000 H   0  0  0  0  0  0  0  0  0  0  0  0
   17.6892    4.2704    0.0000 H   0  0  0  0  0  0  0  0  0  0  0  0
   16.0932    3.1881    0.0000 H   0  0  0  0  0  0  0  0  0  0  0  0
  1  2  1  0
  2  3  1  0
  3  4  1  0
  4  5  2  0
  4  6  1  0
  6  7  1  0
  7  8  1  0
  8  9  1  0
  9 10  1  0
 10 11  1  0
 10 12  2  0
  7 13  1  0
 13 14  2  0
 13 15  1  0
 15 16  1  0
 16 17  1  0
 17 18  1  0
 17 19  1  0
 16 20  1  0
 20 21  2  0
 20 22  1  0
 22 23  1  0
 23 24  1  0
 24 25  1  0
 25 26  2  0
 26 27  1  0
 27 28  2  0
 28 29  1  0
 29 30  2  0
 23 31  1  0
 31 32  2  0
 31 33  1  0
 33 34  1  0
 34 35  1  0
 35 36  1  0
 34 37  1  0
 37 38  2  0
 37 39  1  0
 39 40  1  0
 40 41  1  0
 41 42  1  0
 42 43  2  0
 42 44  1  0
 40 45  1  0
 45 46  2  0
 45 47  1  0
 48 47  1  1
 48 49  1  0
 49 50  1  0
 50 51  1  0
 51 52  1  0
 48 53  1  0
 48 54  1  0
 54 55  2  0
 54 56  1  0
 56 57  1  0
 57 58  1  0
 58 59  1  0
 59 60  2  0
 60 61  1  0
 61 62  1  0
 62 63  2  0
 63 64  1  0
 64 65  2  0
 65 66  1  0
 66 67  2  0
 57 68  1  0
 68 69  2  0
 68 70  1  0
 70 71  1  0
 71 72  1  0
 72 73  1  0
 73 74  1  0
 74 75  1  0
 75 76  1  0
 71 77  1  0
 77 78  2  0
 77 79  1  0
 79 80  1  0
 80 81  1  0
 81 82  1  0
 82 83  1  0
 83 84  1  0
 80 85  1  0
 80 86  1  6
 86 87  2  0
 86 88  1  0
 88 89  1  0
 89 90  1  0
 90 91  1  0
 91 92  1  0
 91 93  1  0
 89 94  1  0
 94 95  2  0
 94 96  1  0
 30 25  1  0
 67 59  1  0
 67 62  1  0
 52 84  2  0
  1 97  1  0
  1 98  1  0
  2 99  1  0
  2100  1  0
  3101  1  0
  3102  1  0
  6103  1  0
  7104  1  1
  8105  1  0
  8106  1  0
  9107  1  0
  9108  1  0
 11109  1  0
 11110  1  0
 15111  1  0
 16112  1  1
 17113  1  1
 18114  1  0
 19115  1  0
 19116  1  0
 19117  1  0
 22118  1  0
 23119  1  6
 24120  1  0
 24121  1  0
 26122  1  0
 27123  1  0
 28124  1  0
 29125  1  0
 30126  1  0
 33127  1  0
 34128  1  6
 35129  1  0
 35130  1  0
 36131  1  0
 39132  1  0
 40133  1  6
 41134  1  0
 41135  1  0
 47136  1  0
 49137  1  0
 49138  1  0
 50139  1  0
 50140  1  0
 51141  1  0
 51142  1  0
 52143  1  0
 53144  1  0
 53145  1  0
 53146  1  0
 56147  1  0
 57148  1  1
 58149  1  0
 58150  1  0
 60151  1  0
 61152  1  0
 63153  1  0
 64154  1  0
 65155  1  0
 66156  1  0
 70157  1  0
 71158  1  1
 72159  1  0
 72160  1  0
 73161  1  0
 73162  1  0
 74163  1  0
 74164  1  0
 75165  1  0
 75166  1  0
 76167  1  0
 76168  1  0
 76169  1  0
 79170  1  0
 81171  1  0
 81172  1  0
 82173  1  0
 82174  1  0
 83175  1  0
 83176  1  0
 84177  1  0
 85178  1  0
 85179  1  0
 85180  1  0
 88181  1  0
 89182  1  1
 90183  1  0
 90184  1  0
 91185  1  0
 92186  1  0
 92187  1  0
 92188  1  0
 93189  1  0
 93190  1  0
 93191  1  0
M  CHG  3  44  -1  76   1  96  -1
M  END
