
     RDKit          2D

338343  0  0  0  0  0  0  0  0999 V2000
  -28.4576    0.2763    0.0000 C   0  0  0  0  0  0  0  0  0  0  0  0
  -29.7458   -0.4922    0.0000 N   0  0  0  0  0  0  0  0  0  0  0  0
  -31.0554    0.2392    0.0000 C   0  0  0  0  0  0  0  0  0  0  0  0
  -31.0768    1.7390    0.0000 C   0  0  0  0  0  0  0  0  0  0  0  0
  -32.3864    2.4704    0.0000 C   0  0  0  0  0  0  0  0  0  0  0  0
  -33.6746    1.7019    0.0000 C   0  0  0  0  0  0  0  0  0  0  0  0
  -33.6532    0.2021    0.0000 C   0  0  0  0  0  0  0  0  0  0  0  0
  -32.3436   -0.5293    0.0000 C   0  0  0  0  0  0  0  0  0  0  0  0
  -35.0730   -0.2818    0.0000 C   0  0  0  0  0  0  0  0  0  0  0  0
  -35.9719    0.9190    0.0000 O   0  0  0  0  0  0  0  0  0  0  0  0
  -35.1077    2.1450    0.0000 C   0  0  0  0  0  0  0  0  0  0  0  0
  -35.5916    3.5648    0.0000 O   0  0  0  0  0  0  0  0  0  0  0  0
  -36.5356   -0.6146    0.0000 C   0  0  0  0  0  0  0  0  0  0  0  0
  -36.9787   -2.0477    0.0000 C   0  0  0  0  0  0  0  0  0  0  0  0
  -38.4413   -2.3805    0.0000 C   0  0  0  0  0  0  0  0  0  0  0  0
  -39.4609   -1.2802    0.0000 C   0  0  0  0  0  0  0  0  0  0  0  0
  -39.0178    0.1529    0.0000 C   0  0  0  0  0  0  0  0  0  0  0  0
  -37.5551    0.4857    0.0000 C   0  0  0  0  0  0  0  0  0  0  0  0
  -40.9235   -1.6130    0.0000 O   0  0  0  0  0  0  0  0  0  0  0  0
  -35.9592   -3.1479    0.0000 O   0  0  0  0  0  0  0  0  0  0  0  0
  -34.4966   -2.8151    0.0000 C   0  0  0  0  0  0  0  0  0  0  0  0
  -34.0535   -1.3821    0.0000 C   0  0  0  0  0  0  0  0  0  0  0  0
  -32.7976   -1.7180    0.0000 C   0  0  0  0  0  0  0  0  0  0  0  0
  -32.2539   -2.3048    0.0000 C   0  0  0  0  0  0  0  0  0  0  0  0
  -32.4902   -3.0691    0.0000 C   0  0  0  0  0  0  0  0  0  0  0  0
  -33.2703   -3.2466    0.0000 C   0  0  0  0  0  0  0  0  0  0  0  0
  -30.9949   -4.6828    0.0000 O   0  0  0  0  0  0  0  0  0  0  0  0
  -28.4790    1.7762    0.0000 S   0  0  0  0  0  0  0  0  0  0  0  0
  -27.1479   -0.4550    0.0000 N   0  0  0  0  0  0  0  0  0  0  0  0
  -25.8598    0.3134    0.0000 C   0  0  0  0  0  0  0  0  0  0  0  0
  -24.5501   -0.4179    0.0000 C   0  0  0  0  0  0  0  0  0  0  0  0
  -23.2619    0.3506    0.0000 C   0  0  0  0  0  0  0  0  0  0  0  0
  -23.2834    1.8504    0.0000 O   0  0  0  0  0  0  0  0  0  0  0  0
  -21.9523   -0.3808    0.0000 N   0  0  0  0  0  0  0  0  0  0  0  0
  -20.6641    0.3877    0.0000 C   0  0  0  0  0  0  0  0  0  0  0  0
  -19.7165    1.5504    0.0000 C   0  0  0  0  0  0  0  0  0  0  0  0
  -19.2236    2.9672    0.0000 O   0  0  0  0  0  0  0  0  0  0  0  0
  -18.2176    1.4934    0.0000 C   0  0  0  0  0  0  0  0  0  0  0  0
  -19.3545   -0.3437    0.0000 C   0  0  0  0  0  0  0  0  0  0  0  0
  -19.3331   -1.8435    0.0000 O   0  0  0  0  0  0  0  0  0  0  0  0
  -18.0663    0.4248    0.0000 N   0  0  0  0  0  0  0  0  0  0  0  0
  -16.7567   -0.3065    0.0000 C   0  0  0  0  0  0  0  0  0  0  0  0
  -15.7762   -1.4417    0.0000 C   0  0  0  0  0  0  0  0  0  0  0  0
  -16.2690   -2.8584    0.0000 C   0  0  0  0  0  0  0  0  0  0  0  0
  -15.2885   -3.9936    0.0000 C   0  0  0  0  0  0  0  0  0  0  0  0
  -15.7814   -5.4103    0.0000 N   0  0  0  0  0  0  0  0  0  0  0  0
  -14.8009   -6.5455    0.0000 C   0  0  0  0  0  0  0  0  0  0  0  0
  -15.2937   -7.9622    0.0000 N   0  0  0  0  0  0  0  0  0  0  0  0
  -13.3275   -6.2639    0.0000 N   0  0  0  0  0  0  0  0  0  0  0  0
  -15.4685    0.4620    0.0000 C   0  0  0  0  0  0  0  0  0  0  0  0
  -15.4900    1.9618    0.0000 O   0  0  0  0  0  0  0  0  0  0  0  0
  -14.1589   -0.2694    0.0000 N   0  0  0  0  0  0  0  0  0  0  0  0
  -12.8707    0.4991    0.0000 C   0  0  0  0  0  0  0  0  0  0  0  0
  -11.9230    1.6618    0.0000 C   0  0  0  0  0  0  0  0  0  0  0  0
  -10.4423    1.4225    0.0000 C   0  0  0  0  0  0  0  0  0  0  0  0
   -9.4946    2.5852    0.0000 C   0  0  0  0  0  0  0  0  0  0  0  0
   -7.9957    2.5282    0.0000 N   0  0  0  0  0  0  0  0  0  0  0  0
  -10.0277    3.9873    0.0000 O   0  0  0  0  0  0  0  0  0  0  0  0
  -11.5611   -0.2323    0.0000 C   0  0  0  0  0  0  0  0  0  0  0  0
  -11.5396   -1.7321    0.0000 O   0  0  0  0  0  0  0  0  0  0  0  0
  -10.2729    0.5362    0.0000 N   0  0  0  0  0  0  0  0  0  0  0  0
   -8.9633   -0.1951    0.0000 C   0  0  0  0  0  0  0  0  0  0  0  0
   -7.9828   -1.3303    0.0000 C   0  0  0  0  0  0  0  0  0  0  0  0
   -7.6751    0.5733    0.0000 C   0  0  0  0  0  0  0  0  0  0  0  0
   -7.5573    1.6605    0.0000 O   0  0  0  0  0  0  0  0  0  0  0  0
   -6.3655   -0.1580    0.0000 N   0  0  0  0  0  0  0  0  0  0  0  0
   -5.0773    0.6105    0.0000 C   0  0  0  0  0  0  0  0  0  0  0  0
   -4.1296    1.7732    0.0000 C   0  0  0  0  0  0  0  0  0  0  0  0
   -2.6488    1.5339    0.0000 C   0  0  0  0  0  0  0  0  0  0  0  0
   -1.7012    2.6966    0.0000 C   0  0  0  0  0  0  0  0  0  0  0  0
   -0.2204    2.4573    0.0000 N   0  0  0  0  0  0  0  0  0  0  0  0
    0.7273    3.6200    0.0000 C   0  0  0  0  0  0  0  0  0  0  0  0
    2.1678    3.2019    0.0000 N   0  0  0  0  0  0  0  0  0  0  0  0
    0.1942    5.0220    0.0000 N   0  0  0  0  0  0  0  0  0  0  0  0
   -3.7676   -0.1209    0.0000 C   0  0  0  0  0  0  0  0  0  0  0  0
   -3.7462   -1.6207    0.0000 O   0  0  0  0  0  0  0  0  0  0  0  0
   -2.4795    0.6476    0.0000 N   0  0  0  0  0  0  0  0  0  0  0  0
   -1.1698   -0.0838    0.0000 C   0  0  0  0  0  0  0  0  0  0  0  0
   -0.1893   -1.2189    0.0000 C   0  0  0  0  0  0  0  0  0  0  0  0
   -0.6822   -2.6357    0.0000 C   0  0  0  0  0  0  0  0  0  0  0  0
    0.2983   -3.7708    0.0000 C   0  0  0  0  0  0  0  0  0  0  0  0
   -0.1945   -5.1876    0.0000 N   0  0  0  0  0  0  0  0  0  0  0  0
    0.7860   -6.3227    0.0000 C   0  0  0  0  0  0  0  0  0  0  0  0
    0.2932   -7.7395    0.0000 N   0  0  0  0  0  0  0  0  0  0  0  0
    2.2593   -6.0412    0.0000 N   0  0  0  0  0  0  0  0  0  0  0  0
    0.1183    0.6847    0.0000 C   0  0  0  0  0  0  0  0  0  0  0  0
    0.3678    1.7494    0.0000 O   0  0  0  0  0  0  0  0  0  0  0  0
    1.4280   -0.0466    0.0000 N   0  0  0  0  0  0  0  0  0  0  0  0
    2.7162    0.7218    0.0000 C   0  0  0  0  0  0  0  0  0  0  0  0
    3.6638    1.8846    0.0000 C   0  0  0  0  0  0  0  0  0  0  0  0
    5.1446    1.6452    0.0000 C   0  0  0  0  0  0  0  0  0  0  0  0
    5.9435    2.9148    0.0000 N   0  0  0  0  0  0  0  0  0  0  0  0
    5.5998    0.9908    0.0000 O   0  0  0  0  0  0  0  0  0  0  0  0
    4.0258   -0.0095    0.0000 C   0  0  0  0  0  0  0  0  0  0  0  0
    3.8642   -1.5008    0.0000 O   0  0  0  0  0  0  0  0  0  0  0  0
    5.3140    0.7590    0.0000 N   0  0  0  0  0  0  0  0  0  0  0  0
    6.6236    0.0276    0.0000 C   0  0  0  0  0  0  0  0  0  0  0  0
    6.9418   -1.4382    0.0000 C   0  0  0  0  0  0  0  0  0  0  0  0
    7.6779   -2.7452    0.0000 C   0  0  0  0  0  0  0  0  0  0  0  0
    8.7666   -3.7771    0.0000 C   0  0  0  0  0  0  0  0  0  0  0  0
   10.1110   -4.4423    0.0000 C   0  0  0  0  0  0  0  0  0  0  0  0
    5.3185   -0.7117    0.0000 C   0  0  0  0  0  0  0  0  0  0  0  0
    6.7516    1.5221    0.0000 C   0  0  0  0  0  0  0  0  0  0  0  0
    5.5150    2.3711    0.0000 O   0  0  0  0  0  0  0  0  0  0  0  0
    7.3144    2.9125    0.0000 N   0  0  0  0  0  0  0  0  0  0  0  0
    8.2621    4.0753    0.0000 C   0  0  0  0  0  0  0  0  0  0  0  0
    8.0174    5.5552    0.0000 C   0  0  0  0  0  0  0  0  0  0  0  0
    6.6134    6.0832    0.0000 C   0  0  0  0  0  0  0  0  0  0  0  0
    6.3686    7.5631    0.0000 C   0  0  0  0  0  0  0  0  0  0  0  0
    4.9646    8.0911    0.0000 N   0  0  0  0  0  0  0  0  0  0  0  0
    4.7199    9.5710    0.0000 C   0  0  0  0  0  0  0  0  0  0  0  0
    3.3159   10.0990    0.0000 N   0  0  0  0  0  0  0  0  0  0  0  0
    5.8792   10.5229    0.0000 N   0  0  0  0  0  0  0  0  0  0  0  0
    9.5104    4.9070    0.0000 C   0  0  0  0  0  0  0  0  0  0  0  0
    8.8740    6.2653    0.0000 O   0  0  0  0  0  0  0  0  0  0  0  0
   10.9484    5.3339    0.0000 N   0  0  0  0  0  0  0  0  0  0  0  0
   12.4483    5.3179    0.0000 C   0  0  0  0  0  0  0  0  0  0  0  0
   13.4527    6.4320    0.0000 C   0  0  0  0  0  0  0  0  0  0  0  0
   12.9902    7.8588    0.0000 C   0  0  0  0  0  0  0  0  0  0  0  0
   13.9946    8.9729    0.0000 C   0  0  0  0  0  0  0  0  0  0  0  0
   13.5320   10.3998    0.0000 N   0  0  0  0  0  0  0  0  0  0  0  0
   14.5365   11.5138    0.0000 C   0  0  0  0  0  0  0  0  0  0  0  0
   14.0739   12.9407    0.0000 N   0  0  0  0  0  0  0  0  0  0  0  0
   16.0035   11.2010    0.0000 N   0  0  0  0  0  0  0  0  0  0  0  0
   13.8769    4.8605    0.0000 C   0  0  0  0  0  0  0  0  0  0  0  0
   14.5420    6.2050    0.0000 O   0  0  0  0  0  0  0  0  0  0  0  0
   15.1072    4.0024    0.0000 N   0  0  0  0  0  0  0  0  0  0  0  0
   16.0299    2.8198    0.0000 C   0  0  0  0  0  0  0  0  0  0  0  0
   17.5271    2.7291    0.0000 C   0  0  0  0  0  0  0  0  0  0  0  0
   18.3543    3.9804    0.0000 C   0  0  0  0  0  0  0  0  0  0  0  0
   19.8515    3.8897    0.0000 C   0  0  0  0  0  0  0  0  0  0  0  0
   20.6787    5.1410    0.0000 N   0  0  0  0  0  0  0  0  0  0  0  0
   22.1760    5.0503    0.0000 C   0  0  0  0  0  0  0  0  0  0  0  0
   23.0032    6.3016    0.0000 N   0  0  0  0  0  0  0  0  0  0  0  0
   22.8461    3.7083    0.0000 N   0  0  0  0  0  0  0  0  0  0  0  0
   16.5630    1.4177    0.0000 C   0  0  0  0  0  0  0  0  0  0  0  0
   18.0288    1.7359    0.0000 O   0  0  0  0  0  0  0  0  0  0  0  0
   16.6591   -0.0792    0.0000 N   0  0  0  0  0  0  0  0  0  0  0  0
   16.3098   -1.5379    0.0000 C   0  0  0  0  0  0  0  0  0  0  0  0
   15.5460   -2.8289    0.0000 C   0  0  0  0  0  0  0  0  0  0  0  0
   14.4357   -3.8374    0.0000 C   0  0  0  0  0  0  0  0  0  0  0  0
   13.0774   -4.4738    0.0000 C   0  0  0  0  0  0  0  0  0  0  0  0
   11.5918   -4.6816    0.0000 C   0  0  0  0  0  0  0  0  0  0  0  0
   17.7832   -1.2564    0.0000 C   0  0  0  0  0  0  0  0  0  0  0  0
   17.1724   -2.7651    0.0000 C   0  0  0  0  0  0  0  0  0  0  0  0
   16.8890   -4.2381    0.0000 O   0  0  0  0  0  0  0  0  0  0  0  0
   18.6665   -2.6316    0.0000 N   0  0  0  0  0  0  0  0  0  0  0  0
   19.5291   -3.8588    0.0000 C   0  0  0  0  0  0  0  0  0  0  0  0
   19.9199   -5.3070    0.0000 C   0  0  0  0  0  0  0  0  0  0  0  0
   18.8612   -6.3696    0.0000 C   0  0  0  0  0  0  0  0  0  0  0  0
   19.2521   -7.8177    0.0000 C   0  0  0  0  0  0  0  0  0  0  0  0
   18.1934   -8.8803    0.0000 N   0  0  0  0  0  0  0  0  0  0  0  0
   18.5842  -10.3285    0.0000 C   0  0  0  0  0  0  0  0  0  0  0  0
   17.5255  -11.3911    0.0000 N   0  0  0  0  0  0  0  0  0  0  0  0
   20.0338  -10.7141    0.0000 N   0  0  0  0  0  0  0  0  0  0  0  0
   21.0231   -3.7253    0.0000 C   0  0  0  0  0  0  0  0  0  0  0  0
   21.6546   -2.3647    0.0000 O   0  0  0  0  0  0  0  0  0  0  0  0
   21.8857   -4.9525    0.0000 N   0  0  0  0  0  0  0  0  0  0  0  0
   23.3798   -4.8190    0.0000 C   0  0  0  0  0  0  0  0  0  0  0  0
   24.7381   -4.1826    0.0000 C   0  0  0  0  0  0  0  0  0  0  0  0
   25.9684   -5.0408    0.0000 C   0  0  0  0  0  0  0  0  0  0  0  0
   27.3267   -4.4043    0.0000 C   0  0  0  0  0  0  0  0  0  0  0  0
   28.5570   -5.2625    0.0000 N   0  0  0  0  0  0  0  0  0  0  0  0
   29.9153   -4.6261    0.0000 C   0  0  0  0  0  0  0  0  0  0  0  0
   31.1456   -5.4842    0.0000 N   0  0  0  0  0  0  0  0  0  0  0  0
   30.0433   -3.1315    0.0000 N   0  0  0  0  0  0  0  0  0  0  0  0
   24.2424   -6.0462    0.0000 C   0  0  0  0  0  0  0  0  0  0  0  0
   25.7416   -6.0958    0.0000 O   0  0  0  0  0  0  0  0  0  0  0  0
   23.6109   -7.4068    0.0000 O   0  0  0  0  0  0  0  0  0  0  0  0
  -29.5417   -1.9782    0.0000 H   0  0  0  0  0  0  0  0  0  0  0  0
  -29.7886    2.5075    0.0000 H   0  0  0  0  0  0  0  0  0  0  0  0
  -32.4079    3.9702    0.0000 H   0  0  0  0  0  0  0  0  0  0  0  0
  -31.9598   -1.9794    0.0000 H   0  0  0  0  0  0  0  0  0  0  0  0
  -38.8844   -3.8135    0.0000 H   0  0  0  0  0  0  0  0  0  0  0  0
  -40.0373    1.2531    0.0000 H   0  0  0  0  0  0  0  0  0  0  0  0
  -37.1121    1.9187    0.0000 H   0  0  0  0  0  0  0  0  0  0  0  0
  -41.9430   -0.5128    0.0000 H   0  0  0  0  0  0  0  0  0  0  0  0
  -32.1478    0.3838    0.0000 H   0  0  0  0  0  0  0  0  0  0  0  0
  -30.0791   -1.9975    0.0000 H   0  0  0  0  0  0  0  0  0  0  0  0
  -33.9201   -5.3484    0.0000 H   0  0  0  0  0  0  0  0  0  0  0  0
  -31.4380   -6.1159    0.0000 H   0  0  0  0  0  0  0  0  0  0  0  0
  -27.1265   -1.9549    0.0000 H   0  0  0  0  0  0  0  0  0  0  0  0
  -24.9121    1.4762    0.0000 H   0  0  0  0  0  0  0  0  0  0  0  0
  -26.8403    1.4486    0.0000 H   0  0  0  0  0  0  0  0  0  0  0  0
  -23.5696   -1.5531    0.0000 H   0  0  0  0  0  0  0  0  0  0  0  0
  -25.4978   -1.5806    0.0000 H   0  0  0  0  0  0  0  0  0  0  0  0
  -21.9309   -1.8806    0.0000 H   0  0  0  0  0  0  0  0  0  0  0  0
  -21.6446    1.5229    0.0000 H   0  0  0  0  0  0  0  0  0  0  0  0
  -21.0261    2.2818    0.0000 H   0  0  0  0  0  0  0  0  0  0  0  0
  -20.2041    4.1023    0.0000 H   0  0  0  0  0  0  0  0  0  0  0  0
  -17.2880    2.4738    0.0000 H   0  0  0  0  0  0  0  0  0  0  0  0
  -16.9261    0.5797    0.0000 H   0  0  0  0  0  0  0  0  0  0  0  0
  -18.0056   -0.1711    0.0000 H   0  0  0  0  0  0  0  0  0  0  0  0
  -17.9048    1.9161    0.0000 H   0  0  0  0  0  0  0  0  0  0  0  0
  -17.8390   -1.3451    0.0000 H   0  0  0  0  0  0  0  0  0  0  0  0
  -14.4666   -2.1731    0.0000 H   0  0  0  0  0  0  0  0  0  0  0  0
  -14.5753   -0.5428    0.0000 H   0  0  0  0  0  0  0  0  0  0  0  0
  -17.2167   -4.0212    0.0000 H   0  0  0  0  0  0  0  0  0  0  0  0
  -17.6580   -2.2922    0.0000 H   0  0  0  0  0  0  0  0  0  0  0  0
  -13.9789   -4.7250    0.0000 H   0  0  0  0  0  0  0  0  0  0  0  0
  -14.2062   -2.9551    0.0000 H   0  0  0  0  0  0  0  0  0  0  0  0
  -17.2547   -5.6919    0.0000 H   0  0  0  0  0  0  0  0  0  0  0  0
  -14.3132   -9.0974    0.0000 H   0  0  0  0  0  0  0  0  0  0  0  0
  -16.7670   -8.2438    0.0000 H   0  0  0  0  0  0  0  0  0  0  0  0
  -12.3470   -7.3991    0.0000 H   0  0  0  0  0  0  0  0  0  0  0  0
  -12.8347   -4.8472    0.0000 H   0  0  0  0  0  0  0  0  0  0  0  0
  -13.9548   -1.7555    0.0000 H   0  0  0  0  0  0  0  0  0  0  0  0
  -13.8512    1.6343    0.0000 H   0  0  0  0  0  0  0  0  0  0  0  0
  -11.4302    3.0785    0.0000 H   0  0  0  0  0  0  0  0  0  0  0  0
  -13.2327    2.3932    0.0000 H   0  0  0  0  0  0  0  0  0  0  0  0
   -9.1326    0.6911    0.0000 H   0  0  0  0  0  0  0  0  0  0  0  0
  -10.2121   -0.0598    0.0000 H   0  0  0  0  0  0  0  0  0  0  0  0
   -7.0662    3.5086    0.0000 H   0  0  0  0  0  0  0  0  0  0  0  0
   -7.1126    1.1155    0.0000 H   0  0  0  0  0  0  0  0  0  0  0  0
   -9.9308    1.9967    0.0000 H   0  0  0  0  0  0  0  0  0  0  0  0
   -9.9109   -1.3579    0.0000 H   0  0  0  0  0  0  0  0  0  0  0  0
   -8.4756   -2.7470    0.0000 H   0  0  0  0  0  0  0  0  0  0  0  0
   -6.7721   -2.2159    0.0000 H   0  0  0  0  0  0  0  0  0  0  0  0
   -6.7819   -0.4315    0.0000 H   0  0  0  0  0  0  0  0  0  0  0  0
   -6.1614   -1.6441    0.0000 H   0  0  0  0  0  0  0  0  0  0  0  0
   -6.0578    1.7456    0.0000 H   0  0  0  0  0  0  0  0  0  0  0  0
   -3.8131    3.2394    0.0000 H   0  0  0  0  0  0  0  0  0  0  0  0
   -5.4392    2.5046    0.0000 H   0  0  0  0  0  0  0  0  0  0  0  0
   -1.3392    0.8025    0.0000 H   0  0  0  0  0  0  0  0  0  0  0  0
   -2.4187    0.0516    0.0000 H   0  0  0  0  0  0  0  0  0  0  0  0
   -1.2083    4.1133    0.0000 H   0  0  0  0  0  0  0  0  0  0  0  0
   -2.9119    3.5821    0.0000 H   0  0  0  0  0  0  0  0  0  0  0  0
    0.6362    1.2259    0.0000 H   0  0  0  0  0  0  0  0  0  0  0  0
    3.1557    4.5434    0.0000 H   0  0  0  0  0  0  0  0  0  0  0  0
    2.5878    1.9178    0.0000 H   0  0  0  0  0  0  0  0  0  0  0  0
    1.1418    6.1848    0.0000 H   0  0  0  0  0  0  0  0  0  0  0  0
   -1.2866    5.2614    0.0000 H   0  0  0  0  0  0  0  0  0  0  0  0
   -2.1373    2.1081    0.0000 H   0  0  0  0  0  0  0  0  0  0  0  0
   -2.2522   -1.1223    0.0000 H   0  0  0  0  0  0  0  0  0  0  0  0
    1.1203   -1.9503    0.0000 H   0  0  0  0  0  0  0  0  0  0  0  0
    1.0115   -0.3201    0.0000 H   0  0  0  0  0  0  0  0  0  0  0  0
   -1.6298   -3.7984    0.0000 H   0  0  0  0  0  0  0  0  0  0  0  0
   -2.0712   -2.0694    0.0000 H   0  0  0  0  0  0  0  0  0  0  0  0
    1.6080   -4.5022    0.0000 H   0  0  0  0  0  0  0  0  0  0  0  0
    1.3807   -2.7323    0.0000 H   0  0  0  0  0  0  0  0  0  0  0  0
   -1.6678   -5.4691    0.0000 H   0  0  0  0  0  0  0  0  0  0  0  0
    1.2737   -8.8746    0.0000 H   0  0  0  0  0  0  0  0  0  0  0  0
   -1.1802   -8.0210    0.0000 H   0  0  0  0  0  0  0  0  0  0  0  0
    3.2398   -7.1763    0.0000 H   0  0  0  0  0  0  0  0  0  0  0  0
    2.7522   -4.6244    0.0000 H   0  0  0  0  0  0  0  0  0  0  0  0
    1.6321   -1.5327    0.0000 H   0  0  0  0  0  0  0  0  0  0  0  0
    1.7357    1.8570    0.0000 H   0  0  0  0  0  0  0  0  0  0  0  0
    4.1567    3.3013    0.0000 H   0  0  0  0  0  0  0  0  0  0  0  0
    2.2161    2.2773    0.0000 H   0  0  0  0  0  0  0  0  0  0  0  0
    7.5870    2.9341    0.0000 H   0  0  0  0  0  0  0  0  0  0  0  0
    5.5591    4.2100    0.0000 H   0  0  0  0  0  0  0  0  0  0  0  0
    5.4755    2.2503    0.0000 H   0  0  0  0  0  0  0  0  0  0  0  0
    5.4476   -1.3066    0.0000 H   0  0  0  0  0  0  0  0  0  0  0  0
    6.0533   -2.6468    0.0000 H   0  0  0  0  0  0  0  0  0  0  0  0
    6.2606   -3.2362    0.0000 H   0  0  0  0  0  0  0  0  0  0  0  0
    7.0161   -4.0913    0.0000 H   0  0  0  0  0  0  0  0  0  0  0  0
    7.4578   -4.5100    0.0000 H   0  0  0  0  0  0  0  0  0  0  0  0
    8.7132   -5.2761    0.0000 H   0  0  0  0  0  0  0  0  0  0  0  0
    9.6537   -5.8708    0.0000 H   0  0  0  0  0  0  0  0  0  0  0  0
    5.1832   -2.3722    0.0000 H   0  0  0  0  0  0  0  0  0  0  0  0
    4.0611   -1.4510    0.0000 H   0  0  0  0  0  0  0  0  0  0  0  0
    4.4776    0.3034    0.0000 H   0  0  0  0  0  0  0  0  0  0  0  0
    6.2466    3.9660    0.0000 H   0  0  0  0  0  0  0  0  0  0  0  0
    6.7763    4.2813    0.0000 H   0  0  0  0  0  0  0  0  0  0  0  0
    8.4712    6.9849    0.0000 H   0  0  0  0  0  0  0  0  0  0  0  0
    9.4766    5.9026    0.0000 H   0  0  0  0  0  0  0  0  0  0  0  0
    5.1135    6.0991    0.0000 H   0  0  0  0  0  0  0  0  0  0  0  0
    6.3372    4.6088    0.0000 H   0  0  0  0  0  0  0  0  0  0  0  0
    6.6448    9.0374    0.0000 H   0  0  0  0  0  0  0  0  0  0  0  0
    7.8593    7.7301    0.0000 H   0  0  0  0  0  0  0  0  0  0  0  0
    3.8054    7.1392    0.0000 H   0  0  0  0  0  0  0  0  0  0  0  0
    3.0712   11.5789    0.0000 H   0  0  0  0  0  0  0  0  0  0  0  0
    2.1566    9.1471    0.0000 H   0  0  0  0  0  0  0  0  0  0  0  0
    5.6344   12.0028    0.0000 H   0  0  0  0  0  0  0  0  0  0  0  0
    7.2832    9.9949    0.0000 H   0  0  0  0  0  0  0  0  0  0  0  0
   10.7406    6.8194    0.0000 H   0  0  0  0  0  0  0  0  0  0  0  0
   11.6830    6.6080    0.0000 H   0  0  0  0  0  0  0  0  0  0  0  0
   14.8535    6.9685    0.0000 H   0  0  0  0  0  0  0  0  0  0  0  0
   14.6342    5.5077    0.0000 H   0  0  0  0  0  0  0  0  0  0  0  0
   12.0675    9.0415    0.0000 H   0  0  0  0  0  0  0  0  0  0  0  0
   11.5894    7.3223    0.0000 H   0  0  0  0  0  0  0  0  0  0  0  0
   15.3195    9.6762    0.0000 H   0  0  0  0  0  0  0  0  0  0  0  0
   15.0546    7.9115    0.0000 H   0  0  0  0  0  0  0  0  0  0  0  0
   12.0650   10.7126    0.0000 H   0  0  0  0  0  0  0  0  0  0  0  0
   15.0783   14.0548    0.0000 H   0  0  0  0  0  0  0  0  0  0  0  0
   12.6069   13.2536    0.0000 H   0  0  0  0  0  0  0  0  0  0  0  0
   17.0079   12.3150    0.0000 H   0  0  0  0  0  0  0  0  0  0  0  0
   16.4661    9.7741    0.0000 H   0  0  0  0  0  0  0  0  0  0  0  0
   16.1391    5.0911    0.0000 H   0  0  0  0  0  0  0  0  0  0  0  0
   16.5613    4.2225    0.0000 H   0  0  0  0  0  0  0  0  0  0  0  0
   18.8200    1.9685    0.0000 H   0  0  0  0  0  0  0  0  0  0  0  0
   17.5411    1.2291    0.0000 H   0  0  0  0  0  0  0  0  0  0  0  0
   18.7036    5.4391    0.0000 H   0  0  0  0  0  0  0  0  0  0  0  0
   17.0614    4.7410    0.0000 H   0  0  0  0  0  0  0  0  0  0  0  0
   21.2275    3.2923    0.0000 H   0  0  0  0  0  0  0  0  0  0  0  0
   19.6826    2.3992    0.0000 H   0  0  0  0  0  0  0  0  0  0  0  0
   20.0087    6.4830    0.0000 H   0  0  0  0  0  0  0  0  0  0  0  0
   24.5004    6.2109    0.0000 H   0  0  0  0  0  0  0  0  0  0  0  0
   22.3331    7.6436    0.0000 H   0  0  0  0  0  0  0  0  0  0  0  0
   24.3433    3.6176    0.0000 H   0  0  0  0  0  0  0  0  0  0  0  0
   22.0189    2.4570    0.0000 H   0  0  0  0  0  0  0  0  0  0  0  0
   18.1537   -0.2072    0.0000 H   0  0  0  0  0  0  0  0  0  0  0  0
   16.0086   -4.2558    0.0000 H   0  0  0  0  0  0  0  0  0  0  0  0
   16.9526   -3.3500    0.0000 H   0  0  0  0  0  0  0  0  0  0  0  0
   14.6398   -5.3235    0.0000 H   0  0  0  0  0  0  0  0  0  0  0  0
   15.6262   -4.7499    0.0000 H   0  0  0  0  0  0  0  0  0  0  0  0
   12.6558   -5.9134    0.0000 H   0  0  0  0  0  0  0  0  0  0  0  0
   14.0886   -5.5817    0.0000 H   0  0  0  0  0  0  0  0  0  0  0  0
   11.5759   -6.1815    0.0000 H   0  0  0  0  0  0  0  0  0  0  0  0
   19.0092   -2.1206    0.0000 H   0  0  0  0  0  0  0  0  0  0  0  0
   18.9681   -0.3366    0.0000 H   0  0  0  0  0  0  0  0  0  0  0  0
   17.6051    0.2330    0.0000 H   0  0  0  0  0  0  0  0  0  0  0  0
   19.4591   -1.3581    0.0000 H   0  0  0  0  0  0  0  0  0  0  0  0
   18.1033   -4.3249    0.0000 H   0  0  0  0  0  0  0  0  0  0  0  0
   20.7826   -6.5341    0.0000 H   0  0  0  0  0  0  0  0  0  0  0  0
   21.3919   -5.0182    0.0000 H   0  0  0  0  0  0  0  0  0  0  0  0
   17.5029   -7.0060    0.0000 H   0  0  0  0  0  0  0  0  0  0  0  0
   17.8555   -5.2567    0.0000 H   0  0  0  0  0  0  0  0  0  0  0  0
   20.1147   -9.0449    0.0000 H   0  0  0  0  0  0  0  0  0  0  0  0
   20.6778   -7.3517    0.0000 H   0  0  0  0  0  0  0  0  0  0  0  0
   16.7438   -8.4948    0.0000 H   0  0  0  0  0  0  0  0  0  0  0  0
   17.9164  -12.8393    0.0000 H   0  0  0  0  0  0  0  0  0  0  0  0
   16.0759  -11.0055    0.0000 H   0  0  0  0  0  0  0  0  0  0  0  0
   20.4247  -12.1623    0.0000 H   0  0  0  0  0  0  0  0  0  0  0  0
   21.0926   -9.6515    0.0000 H   0  0  0  0  0  0  0  0  0  0  0  0
   21.4249   -6.3799    0.0000 H   0  0  0  0  0  0  0  0  0  0  0  0
   22.9889   -3.3709    0.0000 H   0  0  0  0  0  0  0  0  0  0  0  0
   25.6594   -2.9989    0.0000 H   0  0  0  0  0  0  0  0  0  0  0  0
   23.8755   -2.9555    0.0000 H   0  0  0  0  0  0  0  0  0  0  0  0
   26.8310   -6.2679    0.0000 H   0  0  0  0  0  0  0  0  0  0  0  0
   25.3609   -6.4122    0.0000 H   0  0  0  0  0  0  0  0  0  0  0  0
   28.3854   -3.3418    0.0000 H   0  0  0  0  0  0  0  0  0  0  0  0
   26.6201   -3.0812    0.0000 H   0  0  0  0  0  0  0  0  0  0  0  0
   28.4290   -6.7570    0.0000 H   0  0  0  0  0  0  0  0  0  0  0  0
   32.5039   -4.8478    0.0000 H   0  0  0  0  0  0  0  0  0  0  0  0
   31.0176   -6.9787    0.0000 H   0  0  0  0  0  0  0  0  0  0  0  0
   31.4016   -2.4951    0.0000 H   0  0  0  0  0  0  0  0  0  0  0  0
   28.8130   -2.2734    0.0000 H   0  0  0  0  0  0  0  0  0  0  0  0
  1  2  1  0
  2  3  1  0
  3  4  2  0
  4  5  1  0
  5  6  2  0
  6  7  1  0
  7  8  2  0
  7  9  1  0
  9 10  1  0
 10 11  1  0
 11 12  2  0
  9 13  1  0
 13 14  1  0
 14 15  2  0
 15 16  1  0
 16 17  2  0
 17 18  1  0
 16 19  1  0
 14 20  1  0
 20 21  1  0
 21 22  2  0
 22 23  1  0
 23 24  2  0
 24 25  1  0
 25 26  2  0
 25 27  1  0
  1 28  2  0
  1 29  1  0
 29 30  1  0
 30 31  1  0
 31 32  1  0
 32 33  2  0
 32 34  1  0
 34 35  1  0
 35 36  1  0
 36 37  1  0
 36 38  1  0
 35 39  1  0
 39 40  2  0
 39 41  1  0
 41 42  1  0
 42 43  1  0
 43 44  1  0
 44 45  1  0
 45 46  1  0
 46 47  1  0
 47 48  2  3
 47 49  1  0
 42 50  1  0
 50 51  2  0
 50 52  1  0
 52 53  1  0
 53 54  1  0
 54 55  1  0
 55 56  1  0
 56 57  1  0
 56 58  2  0
 53 59  1  0
 59 60  2  0
 59 61  1  0
 61 62  1  0
 62 63  1  0
 62 64  1  0
 64 65  2  0
 64 66  1  0
 66 67  1  0
 67 68  1  0
 68 69  1  0
 69 70  1  0
 70 71  1  0
 71 72  1  0
 72 73  2  3
 72 74  1  0
 67 75  1  0
 75 76  2  0
 75 77  1  0
 77 78  1  0
 78 79  1  0
 79 80  1  0
 80 81  1  0
 81 82  1  0
 82 83  1  0
 83 84  2  3
 83 85  1  0
 78 86  1  0
 86 87  2  0
 86 88  1  0
 88 89  1  0
 89 90  1  0
 90 91  1  0
 91 92  1  0
 91 93  2  0
 89 94  1  0
 94 95  2  0
 94 96  1  0
 97 96  1  6
 97 98  1  0
 98 99  1  0
 99100  1  0
100101  1  0
 97102  1  0
 97103  1  0
103104  2  0
103105  1  0
105106  1  0
106107  1  0
107108  1  0
108109  1  0
109110  1  0
110111  1  0
111112  2  3
111113  1  0
106114  1  0
114115  2  0
114116  1  0
116117  1  0
117118  1  0
118119  1  0
119120  1  0
120121  1  0
121122  1  0
122123  2  3
122124  1  0
117125  1  0
125126  2  0
125127  1  0
127128  1  0
128129  1  0
129130  1  0
130131  1  0
131132  1  0
132133  1  0
133134  2  3
133135  1  0
128136  1  0
136137  2  0
136138  1  0
138139  1  0
139140  1  0
140141  1  0
141142  1  0
142143  1  0
139144  1  0
139145  1  6
145146  2  0
145147  1  0
147148  1  0
148149  1  0
149150  1  0
150151  1  0
151152  1  0
152153  1  0
153154  2  3
153155  1  0
148156  1  0
156157  2  0
156158  1  0
158159  1  0
159160  1  0
160161  1  0
161162  1  0
162163  1  0
163164  1  0
164165  2  3
164166  1  0
159167  1  0
167168  2  0
167169  1  0
  8  3  1  0
 11  6  1  0
 18 13  2  0
101143  2  0
 22  9  1  0
 26 21  1  0
  2170  1  0
  4171  1  0
  5172  1  0
  8173  1  0
 15174  1  0
 17175  1  0
 18176  1  0
 19177  1  0
 23178  1  0
 24179  1  0
 26180  1  0
 27181  1  0
 29182  1  0
 30183  1  0
 30184  1  0
 31185  1  0
 31186  1  0
 34187  1  0
 35188  1  1
 36189  1  1
 37190  1  0
 38191  1  0
 38192  1  0
 38193  1  0
 41194  1  0
 42195  1  6
 43196  1  0
 43197  1  0
 44198  1  0
 44199  1  0
 45200  1  0
 45201  1  0
 46202  1  0
 48203  1  0
 48204  1  0
 49205  1  0
 49206  1  0
 52207  1  0
 53208  1  1
 54209  1  0
 54210  1  0
 55211  1  0
 55212  1  0
 57213  1  0
 57214  1  0
 61215  1  0
 62216  1  6
 63217  1  0
 63218  1  0
 63219  1  0
 66220  1  0
 67221  1  1
 68222  1  0
 68223  1  0
 69224  1  0
 69225  1  0
 70226  1  0
 70227  1  0
 71228  1  0
 73229  1  0
 73230  1  0
 74231  1  0
 74232  1  0
 77233  1  0
 78234  1  6
 79235  1  0
 79236  1  0
 80237  1  0
 80238  1  0
 81239  1  0
 81240  1  0
 82241  1  0
 84242  1  0
 84243  1  0
 85244  1  0
 85245  1  0
 88246  1  0
 89247  1  1
 90248  1  0
 90249  1  0
 92250  1  0
 92251  1  0
 96252  1  0
 98253  1  0
 98254  1  0
 99255  1  0
 99256  1  0
100257  1  0
100258  1  0
101259  1  0
102260  1  0
102261  1  0
102262  1  0
105263  1  0
106264  1  1
107265  1  0
107266  1  0
108267  1  0
108268  1  0
109269  1  0
109270  1  0
110271  1  0
112272  1  0
112273  1  0
113274  1  0
113275  1  0
116276  1  0
117277  1  1
118278  1  0
118279  1  0
119280  1  0
119281  1  0
120282  1  0
120283  1  0
121284  1  0
123285  1  0
123286  1  0
124287  1  0
124288  1  0
127289  1  0
128290  1  1
129291  1  0
129292  1  0
130293  1  0
130294  1  0
131295  1  0
131296  1  0
132297  1  0
134298  1  0
134299  1  0
135300  1  0
135301  1  0
138302  1  0
140303  1  0
140304  1  0
141305  1  0
141306  1  0
142307  1  0
142308  1  0
143309  1  0
144310  1  0
144311  1  0
144312  1  0
147313  1  0
148314  1  6
149315  1  0
149316  1  0
150317  1  0
150318  1  0
151319  1  0
151320  1  0
152321  1  0
154322  1  0
154323  1  0
155324  1  0
155325  1  0
158326  1  0
159327  1  1
160328  1  0
160329  1  0
161330  1  0
161331  1  0
162332  1  0
162333  1  0
163334  1  0
165335  1  0
165336  1  0
166337  1  0
166338  1  0
M  CHG  8  48   1  73   1  84   1 112   1 123   1 134   1 154   1 165   1
M  CHG  1 169  -1
M  END
