
     RDKit          2D

421430  0  0  0  0  0  0  0  0999 V2000
   25.8794    6.4999    0.0000 C   0  0  0  0  0  0  0  0  0  0  0  0
   25.5021    7.9517    0.0000 N   0  0  0  0  0  0  0  0  0  0  0  0
   26.5708    9.0043    0.0000 C   0  0  0  0  0  0  0  0  0  0  0  0
   28.0167    8.6051    0.0000 C   0  0  0  0  0  0  0  0  0  0  0  0
   29.0853    9.6577    0.0000 C   0  0  0  0  0  0  0  0  0  0  0  0
   28.7081   11.1095    0.0000 C   0  0  0  0  0  0  0  0  0  0  0  0
   27.2621   11.5087    0.0000 C   0  0  0  0  0  0  0  0  0  0  0  0
   26.1935   10.4561    0.0000 C   0  0  0  0  0  0  0  0  0  0  0  0
   27.1950   13.0072    0.0000 C   0  0  0  0  0  0  0  0  0  0  0  0
   28.5994   13.5341    0.0000 O   0  0  0  0  0  0  0  0  0  0  0  0
   29.5345   12.3613    0.0000 C   0  0  0  0  0  0  0  0  0  0  0  0
   31.0330   12.4285    0.0000 O   0  0  0  0  0  0  0  0  0  0  0  0
   27.2848   14.5045    0.0000 C   0  0  0  0  0  0  0  0  0  0  0  0
   26.0330   15.3309    0.0000 C   0  0  0  0  0  0  0  0  0  0  0  0
   26.1228   16.8282    0.0000 C   0  0  0  0  0  0  0  0  0  0  0  0
   27.4645   17.4991    0.0000 C   0  0  0  0  0  0  0  0  0  0  0  0
   28.7163   16.6727    0.0000 C   0  0  0  0  0  0  0  0  0  0  0  0
   28.6264   15.1753    0.0000 C   0  0  0  0  0  0  0  0  0  0  0  0
   27.5543   18.9964    0.0000 O   0  0  0  0  0  0  0  0  0  0  0  0
   24.6914   14.6601    0.0000 O   0  0  0  0  0  0  0  0  0  0  0  0
   24.6016   13.1628    0.0000 C   0  0  0  0  0  0  0  0  0  0  0  0
   25.8533   12.3363    0.0000 C   0  0  0  0  0  0  0  0  0  0  0  0
   25.1793   11.2247    0.0000 C   0  0  0  0  0  0  0  0  0  0  0  0
   24.4638   10.8669    0.0000 C   0  0  0  0  0  0  0  0  0  0  0  0
   23.7962   11.3077    0.0000 C   0  0  0  0  0  0  0  0  0  0  0  0
   23.8441   12.1062    0.0000 C   0  0  0  0  0  0  0  0  0  0  0  0
   21.8285   10.3237    0.0000 O   0  0  0  0  0  0  0  0  0  0  0  0
   27.3253    6.1007    0.0000 S   0  0  0  0  0  0  0  0  0  0  0  0
   24.8107    5.4473    0.0000 N   0  0  0  0  0  0  0  0  0  0  0  0
   25.1880    3.9955    0.0000 C   0  0  0  0  0  0  0  0  0  0  0  0
   24.1193    2.9429    0.0000 C   0  0  0  0  0  0  0  0  0  0  0  0
   24.4966    1.4911    0.0000 C   0  0  0  0  0  0  0  0  0  0  0  0
   25.2935    1.4712    0.0000 O   0  0  0  0  0  0  0  0  0  0  0  0
   23.4279    0.4385    0.0000 N   0  0  0  0  0  0  0  0  0  0  0  0
   23.8052   -1.0133    0.0000 C   0  0  0  0  0  0  0  0  0  0  0  0
   25.1694   -0.3897    0.0000 C   0  0  0  0  0  0  0  0  0  0  0  0
   25.3114    1.1036    0.0000 C   0  0  0  0  0  0  0  0  0  0  0  0
   26.6757    1.7272    0.0000 C   0  0  0  0  0  0  0  0  0  0  0  0
   26.9986    3.1921    0.0000 O   0  0  0  0  0  0  0  0  0  0  0  0
   27.8978    0.8576    0.0000 O   0  0  0  0  0  0  0  0  0  0  0  0
   23.6632   -2.5065    0.0000 C   0  0  0  0  0  0  0  0  0  0  0  0
   25.0595   -3.0546    0.0000 O   0  0  0  0  0  0  0  0  0  0  0  0
   22.2989   -3.1302    0.0000 N   0  0  0  0  0  0  0  0  0  0  0  0
   22.1569   -4.6234    0.0000 C   0  0  0  0  0  0  0  0  0  0  0  0
   23.6521   -4.5040    0.0000 C   0  0  0  0  0  0  0  0  0  0  0  0
   24.2963   -3.1494    0.0000 C   0  0  0  0  0  0  0  0  0  0  0  0
   25.7916   -3.0299    0.0000 O   0  0  0  0  0  0  0  0  0  0  0  0
   23.7695   -1.7449    0.0000 O   0  0  0  0  0  0  0  0  0  0  0  0
   21.5127   -5.9781    0.0000 C   0  0  0  0  0  0  0  0  0  0  0  0
   22.6374   -6.9706    0.0000 O   0  0  0  0  0  0  0  0  0  0  0  0
   20.0175   -6.0975    0.0000 N   0  0  0  0  0  0  0  0  0  0  0  0
   19.3733   -7.4521    0.0000 C   0  0  0  0  0  0  0  0  0  0  0  0
   20.8192   -7.8513    0.0000 C   0  0  0  0  0  0  0  0  0  0  0  0
   21.8879   -6.7987    0.0000 C   0  0  0  0  0  0  0  0  0  0  0  0
   22.0414   -8.7209    0.0000 C   0  0  0  0  0  0  0  0  0  0  0  0
   23.4056   -8.0973    0.0000 C   0  0  0  0  0  0  0  0  0  0  0  0
   18.3046   -8.5047    0.0000 C   0  0  0  0  0  0  0  0  0  0  0  0
   19.0220   -9.8221    0.0000 O   0  0  0  0  0  0  0  0  0  0  0  0
   16.8587   -8.1055    0.0000 N   0  0  0  0  0  0  0  0  0  0  0  0
   15.7901   -9.1582    0.0000 C   0  0  0  0  0  0  0  0  0  0  0  0
   17.0123  -10.0278    0.0000 C   0  0  0  0  0  0  0  0  0  0  0  0
   18.3765   -9.4042    0.0000 C   0  0  0  0  0  0  0  0  0  0  0  0
   17.8633  -11.2630    0.0000 C   0  0  0  0  0  0  0  0  0  0  0  0
   19.3585  -11.1436    0.0000 C   0  0  0  0  0  0  0  0  0  0  0  0
   14.4259   -9.7818    0.0000 C   0  0  0  0  0  0  0  0  0  0  0  0
   14.6494  -11.2650    0.0000 O   0  0  0  0  0  0  0  0  0  0  0  0
   13.2037   -8.9122    0.0000 N   0  0  0  0  0  0  0  0  0  0  0  0
   11.8395   -9.5358    0.0000 C   0  0  0  0  0  0  0  0  0  0  0  0
   12.6905  -10.7710    0.0000 C   0  0  0  0  0  0  0  0  0  0  0  0
   14.1857  -10.6516    0.0000 C   0  0  0  0  0  0  0  0  0  0  0  0
   15.0368  -11.8868    0.0000 C   0  0  0  0  0  0  0  0  0  0  0  0
   16.5320  -11.7673    0.0000 N   0  0  0  0  0  0  0  0  0  0  0  0
   17.3831  -13.0025    0.0000 C   0  0  0  0  0  0  0  0  0  0  0  0
   18.8817  -13.0662    0.0000 N   0  0  0  0  0  0  0  0  0  0  0  0
   16.7389  -14.3571    0.0000 N   0  0  0  0  0  0  0  0  0  0  0  0
   10.3442   -9.6552    0.0000 C   0  0  0  0  0  0  0  0  0  0  0  0
   10.0470  -11.1255    0.0000 O   0  0  0  0  0  0  0  0  0  0  0  0
    9.4932   -8.4200    0.0000 N   0  0  0  0  0  0  0  0  0  0  0  0
    7.9979   -8.5394    0.0000 C   0  0  0  0  0  0  0  0  0  0  0  0
    8.3752   -9.9912    0.0000 C   0  0  0  0  0  0  0  0  0  0  0  0
    9.8211  -10.3904    0.0000 C   0  0  0  0  0  0  0  0  0  0  0  0
   10.1984  -11.8422    0.0000 N   0  0  0  0  0  0  0  0  0  0  0  0
   11.1127   -9.6277    0.0000 O   0  0  0  0  0  0  0  0  0  0  0  0
    6.5520   -8.1403    0.0000 C   0  0  0  0  0  0  0  0  0  0  0  0
    5.7698   -9.4202    0.0000 O   0  0  0  0  0  0  0  0  0  0  0  0
    6.1748   -6.6885    0.0000 N   0  0  0  0  0  0  0  0  0  0  0  0
    4.7288   -6.2893    0.0000 C   0  0  0  0  0  0  0  0  0  0  0  0
    4.5868   -7.7826    0.0000 C   0  0  0  0  0  0  0  0  0  0  0  0
    5.6939   -8.7947    0.0000 C   0  0  0  0  0  0  0  0  0  0  0  0
    3.9426   -9.1372    0.0000 C   0  0  0  0  0  0  0  0  0  0  0  0
    2.4474   -9.2566    0.0000 C   0  0  0  0  0  0  0  0  0  0  0  0
    3.5067   -5.4197    0.0000 C   0  0  0  0  0  0  0  0  0  0  0  0
    2.2286   -6.2049    0.0000 O   0  0  0  0  0  0  0  0  0  0  0  0
    3.6487   -3.9264    0.0000 N   0  0  0  0  0  0  0  0  0  0  0  0
    2.4265   -3.0568    0.0000 C   0  0  0  0  0  0  0  0  0  0  0  0
    1.7823   -4.4114    0.0000 C   0  0  0  0  0  0  0  0  0  0  0  0
    1.5755   -1.8216    0.0000 C   0  0  0  0  0  0  0  0  0  0  0  0
    0.2224   -2.4690    0.0000 O   0  0  0  0  0  0  0  0  0  0  0  0
    2.2196   -0.4670    0.0000 N   0  0  0  0  0  0  0  0  0  0  0  0
    1.3686    0.7682    0.0000 C   0  0  0  0  0  0  0  0  0  0  0  0
    0.5927   -0.5155    0.0000 C   0  0  0  0  0  0  0  0  0  0  0  0
   -0.5271   -1.5135    0.0000 C   0  0  0  0  0  0  0  0  0  0  0  0
   -1.8913   -2.1372    0.0000 C   0  0  0  0  0  0  0  0  0  0  0  0
   -3.3787   -2.3310    0.0000 C   0  0  0  0  0  0  0  0  0  0  0  0
    2.8445    1.0360    0.0000 C   0  0  0  0  0  0  0  0  0  0  0  0
    1.7316    2.2237    0.0000 C   0  0  0  0  0  0  0  0  0  0  0  0
    3.2249    2.0816    0.0000 O   0  0  0  0  0  0  0  0  0  0  0  0
    1.6495    3.7214    0.0000 N   0  0  0  0  0  0  0  0  0  0  0  0
    1.1296    5.1284    0.0000 C   0  0  0  0  0  0  0  0  0  0  0  0
    1.8405    6.4493    0.0000 C   0  0  0  0  0  0  0  0  0  0  0  0
    3.3398    6.4940    0.0000 C   0  0  0  0  0  0  0  0  0  0  0  0
    4.1849    7.7333    0.0000 C   0  0  0  0  0  0  0  0  0  0  0  0
    5.6247    7.3125    0.0000 N   0  0  0  0  0  0  0  0  0  0  0  0
    5.6694    5.8132    0.0000 C   0  0  0  0  0  0  0  0  0  0  0  0
    4.2573    5.3073    0.0000 N   0  0  0  0  0  0  0  0  0  0  0  0
    0.2180    6.3197    0.0000 C   0  0  0  0  0  0  0  0  0  0  0  0
    1.2601    7.3986    0.0000 O   0  0  0  0  0  0  0  0  0  0  0  0
   -1.0042    7.1893    0.0000 N   0  0  0  0  0  0  0  0  0  0  0  0
   -2.4284    7.6600    0.0000 C   0  0  0  0  0  0  0  0  0  0  0  0
   -3.0178    9.0394    0.0000 C   0  0  0  0  0  0  0  0  0  0  0  0
   -2.1180   10.2395    0.0000 C   0  0  0  0  0  0  0  0  0  0  0  0
   -2.7074   11.6189    0.0000 C   0  0  0  0  0  0  0  0  0  0  0  0
   -0.8620   11.0595    0.0000 C   0  0  0  0  0  0  0  0  0  0  0  0
   -3.9281    7.6901    0.0000 C   0  0  0  0  0  0  0  0  0  0  0  0
   -4.1219    9.1775    0.0000 O   0  0  0  0  0  0  0  0  0  0  0  0
   -5.3700    7.2768    0.0000 N   0  0  0  0  0  0  0  0  0  0  0  0
   -6.6261    6.4568    0.0000 C   0  0  0  0  0  0  0  0  0  0  0  0
   -8.0720    6.8559    0.0000 C   0  0  0  0  0  0  0  0  0  0  0  0
   -7.5846    5.3030    0.0000 C   0  0  0  0  0  0  0  0  0  0  0  0
   -8.5050    6.4874    0.0000 O   0  0  0  0  0  0  0  0  0  0  0  0
   -8.1605    3.9179    0.0000 N   0  0  0  0  0  0  0  0  0  0  0  0
   -8.3025    2.4247    0.0000 C   0  0  0  0  0  0  0  0  0  0  0  0
   -7.9981    0.9559    0.0000 C   0  0  0  0  0  0  0  0  0  0  0  0
   -7.2742   -0.3579    0.0000 C   0  0  0  0  0  0  0  0  0  0  0  0
   -6.1953   -1.4000    0.0000 C   0  0  0  0  0  0  0  0  0  0  0  0
   -4.8572   -2.0778    0.0000 C   0  0  0  0  0  0  0  0  0  0  0  0
   -8.3631    0.9259    0.0000 C   0  0  0  0  0  0  0  0  0  0  0  0
   -8.7063   -0.5343    0.0000 C   0  0  0  0  0  0  0  0  0  0  0  0
   -9.3196   -1.9032    0.0000 C   0  0  0  0  0  0  0  0  0  0  0  0
  -10.1809   -3.1313    0.0000 C   0  0  0  0  0  0  0  0  0  0  0  0
   -8.5266    3.9078    0.0000 C   0  0  0  0  0  0  0  0  0  0  0  0
   -7.0715    4.2719    0.0000 O   0  0  0  0  0  0  0  0  0  0  0  0
   -9.0274    5.3218    0.0000 N   0  0  0  0  0  0  0  0  0  0  0  0
   -9.7867    6.6154    0.0000 C   0  0  0  0  0  0  0  0  0  0  0  0
   -9.2171    8.0031    0.0000 C   0  0  0  0  0  0  0  0  0  0  0  0
   -9.9825    9.2931    0.0000 C   0  0  0  0  0  0  0  0  0  0  0  0
  -10.7771    7.7420    0.0000 C   0  0  0  0  0  0  0  0  0  0  0  0
   -9.8906    8.9520    0.0000 O   0  0  0  0  0  0  0  0  0  0  0  0
  -11.9628    8.6607    0.0000 N   0  0  0  0  0  0  0  0  0  0  0  0
  -13.3009    9.3385    0.0000 C   0  0  0  0  0  0  0  0  0  0  0  0
  -14.7431    9.7507    0.0000 C   0  0  0  0  0  0  0  0  0  0  0  0
  -14.4698   11.2256    0.0000 O   0  0  0  0  0  0  0  0  0  0  0  0
  -16.2373    9.8826    0.0000 N   0  0  0  0  0  0  0  0  0  0  0  0
  -17.7295    9.7293    0.0000 C   0  0  0  0  0  0  0  0  0  0  0  0
  -18.7551   10.8239    0.0000 C   0  0  0  0  0  0  0  0  0  0  0  0
  -18.3200   12.2594    0.0000 C   0  0  0  0  0  0  0  0  0  0  0  0
  -19.3457   13.3540    0.0000 O   0  0  0  0  0  0  0  0  0  0  0  0
  -16.8593   12.6003    0.0000 O   0  0  0  0  0  0  0  0  0  0  0  0
  -19.1656    9.2964    0.0000 C   0  0  0  0  0  0  0  0  0  0  0  0
  -19.8981   10.6054    0.0000 O   0  0  0  0  0  0  0  0  0  0  0  0
  -20.4939    8.5995    0.0000 N   0  0  0  0  0  0  0  0  0  0  0  0
  -21.6663    7.6639    0.0000 C   0  0  0  0  0  0  0  0  0  0  0  0
  -23.1209    8.0302    0.0000 C   0  0  0  0  0  0  0  0  0  0  0  0
  -23.5310    9.4730    0.0000 C   0  0  0  0  0  0  0  0  0  0  0  0
  -22.6047   10.6529    0.0000 C   0  0  0  0  0  0  0  0  0  0  0  0
  -23.4406   11.8984    0.0000 N   0  0  0  0  0  0  0  0  0  0  0  0
  -24.8834   11.4883    0.0000 C   0  0  0  0  0  0  0  0  0  0  0  0
  -26.1537   12.2862    0.0000 C   0  0  0  0  0  0  0  0  0  0  0  0
  -27.4797   11.5851    0.0000 C   0  0  0  0  0  0  0  0  0  0  0  0
  -27.5356   10.0861    0.0000 C   0  0  0  0  0  0  0  0  0  0  0  0
  -26.2654    9.2883    0.0000 C   0  0  0  0  0  0  0  0  0  0  0  0
  -24.9393    9.9894    0.0000 C   0  0  0  0  0  0  0  0  0  0  0  0
  -22.6405    6.5232    0.0000 C   0  0  0  0  0  0  0  0  0  0  0  0
  -23.9644    7.2284    0.0000 O   0  0  0  0  0  0  0  0  0  0  0  0
  -23.3811    5.2188    0.0000 N   0  0  0  0  0  0  0  0  0  0  0  0
  -23.8616    3.7979    0.0000 C   0  0  0  0  0  0  0  0  0  0  0  0
  -25.2833    3.3196    0.0000 C   0  0  0  0  0  0  0  0  0  0  0  0
  -26.4083    4.3117    0.0000 C   0  0  0  0  0  0  0  0  0  0  0  0
  -27.8300    3.8335    0.0000 N   0  0  0  0  0  0  0  0  0  0  0  0
  -26.1116    5.7821    0.0000 O   0  0  0  0  0  0  0  0  0  0  0  0
  -24.0644    2.3116    0.0000 C   0  0  0  0  0  0  0  0  0  0  0  0
  -25.5594    2.1891    0.0000 O   0  0  0  0  0  0  0  0  0  0  0  0
  -23.9823    0.8139    0.0000 N   0  0  0  0  0  0  0  0  0  0  0  0
  -23.6182   -0.6413    0.0000 C   0  0  0  0  0  0  0  0  0  0  0  0
  -24.5556   -1.8122    0.0000 C   0  0  0  0  0  0  0  0  0  0  0  0
  -26.0385   -1.5859    0.0000 C   0  0  0  0  0  0  0  0  0  0  0  0
  -26.9759   -2.7568    0.0000 O   0  0  0  0  0  0  0  0  0  0  0  0
  -26.5838   -0.1885    0.0000 O   0  0  0  0  0  0  0  0  0  0  0  0
  -22.9853   -2.0012    0.0000 C   0  0  0  0  0  0  0  0  0  0  0  0
  -24.1767   -2.9125    0.0000 O   0  0  0  0  0  0  0  0  0  0  0  0
  -22.1065   -3.2168    0.0000 N   0  0  0  0  0  0  0  0  0  0  0  0
  -21.0135   -4.2441    0.0000 C   0  0  0  0  0  0  0  0  0  0  0  0
  -19.7458   -5.0460    0.0000 C   0  0  0  0  0  0  0  0  0  0  0  0
  -18.3493   -5.5935    0.0000 C   0  0  0  0  0  0  0  0  0  0  0  0
  -16.8744   -5.8668    0.0000 C   0  0  0  0  0  0  0  0  0  0  0  0
  -15.3744   -5.8560    0.0000 C   0  0  0  0  0  0  0  0  0  0  0  0
  -13.9036   -5.5616    0.0000 C   0  0  0  0  0  0  0  0  0  0  0  0
  -12.5151   -4.9941    0.0000 C   0  0  0  0  0  0  0  0  0  0  0  0
  -11.2591   -4.1742    0.0000 C   0  0  0  0  0  0  0  0  0  0  0  0
  -22.4193   -4.7672    0.0000 C   0  0  0  0  0  0  0  0  0  0  0  0
  -21.1690   -5.7360    0.0000 C   0  0  0  0  0  0  0  0  0  0  0  0
  -20.2040   -6.8843    0.0000 O   0  0  0  0  0  0  0  0  0  0  0  0
  -22.5389   -6.3472    0.0000 N   0  0  0  0  0  0  0  0  0  0  0  0
  -22.6944   -7.8392    0.0000 C   0  0  0  0  0  0  0  0  0  0  0  0
  -22.3303   -9.2943    0.0000 C   0  0  0  0  0  0  0  0  0  0  0  0
  -22.9630  -10.6543    0.0000 O   0  0  0  0  0  0  0  0  0  0  0  0
  -24.0642   -8.4504    0.0000 C   0  0  0  0  0  0  0  0  0  0  0  0
  -25.2785   -7.5697    0.0000 O   0  0  0  0  0  0  0  0  0  0  0  0
  -24.2198   -9.9423    0.0000 N   0  0  0  0  0  0  0  0  0  0  0  0
  -25.5896  -10.5535    0.0000 C   0  0  0  0  0  0  0  0  0  0  0  0
  -27.0859  -10.6594    0.0000 C   0  0  0  0  0  0  0  0  0  0  0  0
  -27.7679   -9.3234    0.0000 C   0  0  0  0  0  0  0  0  0  0  0  0
  -28.4557  -11.2706    0.0000 C   0  0  0  0  0  0  0  0  0  0  0  0
  -29.6699  -10.3900    0.0000 C   0  0  0  0  0  0  0  0  0  0  0  0
  -25.7452  -12.0454    0.0000 C   0  0  0  0  0  0  0  0  0  0  0  0
  -26.9264  -12.9700    0.0000 O   0  0  0  0  0  0  0  0  0  0  0  0
  -24.5309  -12.9261    0.0000 O   0  0  0  0  0  0  0  0  0  0  0  0
   24.0183    8.1716    0.0000 H   0  0  0  0  0  0  0  0  0  0  0  0
   28.3939    7.1533    0.0000 H   0  0  0  0  0  0  0  0  0  0  0  0
   30.5312    9.2585    0.0000 H   0  0  0  0  0  0  0  0  0  0  0  0
   24.6940   10.4935    0.0000 H   0  0  0  0  0  0  0  0  0  0  0  0
   24.8710   17.6547    0.0000 H   0  0  0  0  0  0  0  0  0  0  0  0
   30.0579   17.3435    0.0000 H   0  0  0  0  0  0  0  0  0  0  0  0
   29.8782   14.3489    0.0000 H   0  0  0  0  0  0  0  0  0  0  0  0
   28.8959   19.6673    0.0000 H   0  0  0  0  0  0  0  0  0  0  0  0
   27.0153   10.0126    0.0000 H   0  0  0  0  0  0  0  0  0  0  0  0
   24.1502    8.6930    0.0000 H   0  0  0  0  0  0  0  0  0  0  0  0
   22.0081   13.3184    0.0000 H   0  0  0  0  0  0  0  0  0  0  0  0
   20.5767   11.1502    0.0000 H   0  0  0  0  0  0  0  0  0  0  0  0
   23.3648    5.8465    0.0000 H   0  0  0  0  0  0  0  0  0  0  0  0
   26.5522    4.6191    0.0000 H   0  0  0  0  0  0  0  0  0  0  0  0
   26.1832    2.8733    0.0000 H   0  0  0  0  0  0  0  0  0  0  0  0
   23.2683    4.1781    0.0000 H   0  0  0  0  0  0  0  0  0  0  0  0
   22.7551    2.3193    0.0000 H   0  0  0  0  0  0  0  0  0  0  0  0
   21.9820    0.8377    0.0000 H   0  0  0  0  0  0  0  0  0  0  0  0
   22.3099   -1.1327    0.0000 H   0  0  0  0  0  0  0  0  0  0  0  0
   26.6646   -0.2702    0.0000 H   0  0  0  0  0  0  0  0  0  0  0  0
   25.5467   -1.8414    0.0000 H   0  0  0  0  0  0  0  0  0  0  0  0
   24.9342    2.5554    0.0000 H   0  0  0  0  0  0  0  0  0  0  0  0
   23.8317    1.3495    0.0000 H   0  0  0  0  0  0  0  0  0  0  0  0
   29.2621    1.4812    0.0000 H   0  0  0  0  0  0  0  0  0  0  0  0
   21.0768   -2.2605    0.0000 H   0  0  0  0  0  0  0  0  0  0  0  0
   20.7110   -4.2243    0.0000 H   0  0  0  0  0  0  0  0  0  0  0  0
   25.0981   -4.9032    0.0000 H   0  0  0  0  0  0  0  0  0  0  0  0
   23.5101   -5.9973    0.0000 H   0  0  0  0  0  0  0  0  0  0  0  0
   23.7931   -0.5173    0.0000 H   0  0  0  0  0  0  0  0  0  0  0  0
   19.1664   -4.8623    0.0000 H   0  0  0  0  0  0  0  0  0  0  0  0
   18.1511   -6.5825    0.0000 H   0  0  0  0  0  0  0  0  0  0  0  0
   20.1750   -9.2059    0.0000 H   0  0  0  0  0  0  0  0  0  0  0  0
   23.3716   -7.0186    0.0000 H   0  0  0  0  0  0  0  0  0  0  0  0
   22.5320   -5.4441    0.0000 H   0  0  0  0  0  0  0  0  0  0  0  0
   20.9494   -5.6341    0.0000 H   0  0  0  0  0  0  0  0  0  0  0  0
   22.8924   -9.9561    0.0000 H   0  0  0  0  0  0  0  0  0  0  0  0
   21.1090   -9.8959    0.0000 H   0  0  0  0  0  0  0  0  0  0  0  0
   24.6278   -8.9669    0.0000 H   0  0  0  0  0  0  0  0  0  0  0  0
   24.4743   -7.0447    0.0000 H   0  0  0  0  0  0  0  0  0  0  0  0
   23.0539   -6.6391    0.0000 H   0  0  0  0  0  0  0  0  0  0  0  0
   16.4815   -6.6538    0.0000 H   0  0  0  0  0  0  0  0  0  0  0  0
   14.9390   -7.9230    0.0000 H   0  0  0  0  0  0  0  0  0  0  0  0
   16.2301  -11.3077    0.0000 H   0  0  0  0  0  0  0  0  0  0  0  0
   19.6956  -10.1183    0.0000 H   0  0  0  0  0  0  0  0  0  0  0  0
   19.4451   -8.3516    0.0000 H   0  0  0  0  0  0  0  0  0  0  0  0
   17.8929   -7.9889    0.0000 H   0  0  0  0  0  0  0  0  0  0  0  0
   18.4147  -12.6580    0.0000 H   0  0  0  0  0  0  0  0  0  0  0  0
   16.6905  -12.1982    0.0000 H   0  0  0  0  0  0  0  0  0  0  0  0
   20.2096  -12.3788    0.0000 H   0  0  0  0  0  0  0  0  0  0  0  0
   20.7886  -10.6909    0.0000 H   0  0  0  0  0  0  0  0  0  0  0  0
   19.5267   -9.6530    0.0000 H   0  0  0  0  0  0  0  0  0  0  0  0
   13.3457   -7.4189    0.0000 H   0  0  0  0  0  0  0  0  0  0  0  0
   11.4622   -8.0840    0.0000 H   0  0  0  0  0  0  0  0  0  0  0  0
   12.8880  -12.2579    0.0000 H   0  0  0  0  0  0  0  0  0  0  0  0
   11.4125  -11.5562    0.0000 H   0  0  0  0  0  0  0  0  0  0  0  0
   15.5500  -10.0279    0.0000 H   0  0  0  0  0  0  0  0  0  0  0  0
   14.1710   -9.1516    0.0000 H   0  0  0  0  0  0  0  0  0  0  0  0
   15.4140  -13.3385    0.0000 H   0  0  0  0  0  0  0  0  0  0  0  0
   13.7588  -12.6720    0.0000 H   0  0  0  0  0  0  0  0  0  0  0  0
   17.4849  -10.6088    0.0000 H   0  0  0  0  0  0  0  0  0  0  0  0
   19.7294  -14.1183    0.0000 H   0  0  0  0  0  0  0  0  0  0  0  0
   17.5899  -15.5923    0.0000 H   0  0  0  0  0  0  0  0  0  0  0  0
   15.2436  -14.4766    0.0000 H   0  0  0  0  0  0  0  0  0  0  0  0
   10.1374   -7.0654    0.0000 H   0  0  0  0  0  0  0  0  0  0  0  0
    8.1400   -7.0462    0.0000 H   0  0  0  0  0  0  0  0  0  0  0  0
    8.2332  -11.4845    0.0000 H   0  0  0  0  0  0  0  0  0  0  0  0
    6.8800  -10.1107    0.0000 H   0  0  0  0  0  0  0  0  0  0  0  0
   11.5848  -12.4146    0.0000 H   0  0  0  0  0  0  0  0  0  0  0  0
    9.1297  -12.8948    0.0000 H   0  0  0  0  0  0  0  0  0  0  0  0
    7.2434   -5.6359    0.0000 H   0  0  0  0  0  0  0  0  0  0  0  0
    5.3730   -4.9347    0.0000 H   0  0  0  0  0  0  0  0  0  0  0  0
    3.2003   -7.2101    0.0000 H   0  0  0  0  0  0  0  0  0  0  0  0
    5.8318  -10.1387    0.0000 H   0  0  0  0  0  0  0  0  0  0  0  0
    7.2549   -9.0514    0.0000 H   0  0  0  0  0  0  0  0  0  0  0  0
    6.7929   -7.5258    0.0000 H   0  0  0  0  0  0  0  0  0  0  0  0
    3.8006  -10.6305    0.0000 H   0  0  0  0  0  0  0  0  0  0  0  0
    5.2490   -9.8744    0.0000 H   0  0  0  0  0  0  0  0  0  0  0  0
    1.8032  -10.6113    0.0000 H   0  0  0  0  0  0  0  0  0  0  0  0
    1.0015   -8.8574    0.0000 H   0  0  0  0  0  0  0  0  0  0  0  0
    2.4063   -7.7572    0.0000 H   0  0  0  0  0  0  0  0  0  0  0  0
    5.0129   -3.3028    0.0000 H   0  0  0  0  0  0  0  0  0  0  0  0
    3.4952   -2.0042    0.0000 H   0  0  0  0  0  0  0  0  0  0  0  0
    2.4765   -5.7411    0.0000 H   0  0  0  0  0  0  0  0  0  0  0  0
    0.7137   -5.4640    0.0000 H   0  0  0  0  0  0  0  0  0  0  0  0
    0.5601   -3.5418    0.0000 H   0  0  0  0  0  0  0  0  0  0  0  0
    3.7183   -0.5307    0.0000 H   0  0  0  0  0  0  0  0  0  0  0  0
    1.9944   -1.0498    0.0000 H   0  0  0  0  0  0  0  0  0  0  0  0
    0.8641   -1.9908    0.0000 H   0  0  0  0  0  0  0  0  0  0  0  0
    0.3962   -2.6957    0.0000 H   0  0  0  0  0  0  0  0  0  0  0  0
   -0.3369   -3.0014    0.0000 H   0  0  0  0  0  0  0  0  0  0  0  0
   -0.8905   -3.2545    0.0000 H   0  0  0  0  0  0  0  0  0  0  0  0
   -2.3264   -3.5727    0.0000 H   0  0  0  0  0  0  0  0  0  0  0  0
   -3.4087   -3.8307    0.0000 H   0  0  0  0  0  0  0  0  0  0  0  0
    3.9466    0.0184    0.0000 H   0  0  0  0  0  0  0  0  0  0  0  0
    4.1399    1.7923    0.0000 H   0  0  0  0  0  0  0  0  0  0  0  0
    2.6805    2.5270    0.0000 H   0  0  0  0  0  0  0  0  0  0  0  0
    3.1183    4.0258    0.0000 H   0  0  0  0  0  0  0  0  0  0  0  0
    2.6259    5.0237    0.0000 H   0  0  0  0  0  0  0  0  0  0  0  0
    2.0568    7.9336    0.0000 H   0  0  0  0  0  0  0  0  0  0  0  0
    0.5725    7.2506    0.0000 H   0  0  0  0  0  0  0  0  0  0  0  0
    3.6790    9.1454    0.0000 H   0  0  0  0  0  0  0  0  0  0  0  0
    6.8113    8.2300    0.0000 H   0  0  0  0  0  0  0  0  0  0  0  0
    6.9087    4.9681    0.0000 H   0  0  0  0  0  0  0  0  0  0  0  0
   -0.3264    8.5274    0.0000 H   0  0  0  0  0  0  0  0  0  0  0  0
   -1.2865    8.6327    0.0000 H   0  0  0  0  0  0  0  0  0  0  0  0
   -4.1692   10.0008    0.0000 H   0  0  0  0  0  0  0  0  0  0  0  0
   -4.4350    8.5477    0.0000 H   0  0  0  0  0  0  0  0  0  0  0  0
   -0.9666    9.2781    0.0000 H   0  0  0  0  0  0  0  0  0  0  0  0
   -1.9606   12.9197    0.0000 H   0  0  0  0  0  0  0  0  0  0  0  0
   -3.7331   12.7134    0.0000 H   0  0  0  0  0  0  0  0  0  0  0  0
   -4.0540   10.9581    0.0000 H   0  0  0  0  0  0  0  0  0  0  0  0
   -0.7609   12.5561    0.0000 H   0  0  0  0  0  0  0  0  0  0  0  0
    0.5988   11.4004    0.0000 H   0  0  0  0  0  0  0  0  0  0  0  0
   -0.2725    9.6802    0.0000 H   0  0  0  0  0  0  0  0  0  0  0  0
   -5.9937    8.6410    0.0000 H   0  0  0  0  0  0  0  0  0  0  0  0
   -6.8569    7.9389    0.0000 H   0  0  0  0  0  0  0  0  0  0  0  0
   -8.2901    8.3514    0.0000 H   0  0  0  0  0  0  0  0  0  0  0  0
   -9.5517    7.1019    0.0000 H   0  0  0  0  0  0  0  0  0  0  0  0
   -8.7398    5.5128    0.0000 H   0  0  0  0  0  0  0  0  0  0  0  0
   -9.6159    4.2809    0.0000 H   0  0  0  0  0  0  0  0  0  0  0  0
   -8.7449   -0.3450    0.0000 H   0  0  0  0  0  0  0  0  0  0  0  0
   -9.4621    1.2825    0.0000 H   0  0  0  0  0  0  0  0  0  0  0  0
   -7.6045   -1.8211    0.0000 H   0  0  0  0  0  0  0  0  0  0  0  0
   -8.6273   -1.0054    0.0000 H   0  0  0  0  0  0  0  0  0  0  0  0
   -6.2627   -2.8985    0.0000 H   0  0  0  0  0  0  0  0  0  0  0  0
   -7.2974   -2.4175    0.0000 H   0  0  0  0  0  0  0  0  0  0  0  0
   -5.3279   -3.5020    0.0000 H   0  0  0  0  0  0  0  0  0  0  0  0
   -6.9933    1.5371    0.0000 H   0  0  0  0  0  0  0  0  0  0  0  0
   -7.3323   -0.1638    0.0000 H   0  0  0  0  0  0  0  0  0  0  0  0
   -7.2204   -0.7396    0.0000 H   0  0  0  0  0  0  0  0  0  0  0  0
   -7.9003   -1.7994    0.0000 H   0  0  0  0  0  0  0  0  0  0  0  0
   -7.8994   -2.3860    0.0000 H   0  0  0  0  0  0  0  0  0  0  0  0
   -8.6018   -3.2203    0.0000 H   0  0  0  0  0  0  0  0  0  0  0  0
   -9.0403   -4.1054    0.0000 H   0  0  0  0  0  0  0  0  0  0  0  0
   -7.7547    6.1157    0.0000 H   0  0  0  0  0  0  0  0  0  0  0  0
   -8.3145    6.9029    0.0000 H   0  0  0  0  0  0  0  0  0  0  0  0
   -8.3500    9.2270    0.0000 H   0  0  0  0  0  0  0  0  0  0  0  0
   -7.9494    7.2012    0.0000 H   0  0  0  0  0  0  0  0  0  0  0  0
   -9.5644   10.5778    0.0000 H   0  0  0  0  0  0  0  0  0  0  0  0
  -11.1904   10.3147    0.0000 H   0  0  0  0  0  0  0  0  0  0  0  0
  -11.4026    8.3980    0.0000 H   0  0  0  0  0  0  0  0  0  0  0  0
  -11.3214   10.0167    0.0000 H   0  0  0  0  0  0  0  0  0  0  0  0
  -13.5720   10.8138    0.0000 H   0  0  0  0  0  0  0  0  0  0  0  0
  -12.2178   10.3762    0.0000 H   0  0  0  0  0  0  0  0  0  0  0  0
  -16.2481   11.3826    0.0000 H   0  0  0  0  0  0  0  0  0  0  0  0
  -17.2042   11.1344    0.0000 H   0  0  0  0  0  0  0  0  0  0  0  0
  -20.0007   11.6597    0.0000 H   0  0  0  0  0  0  0  0  0  0  0  0
  -19.9186    9.8772    0.0000 H   0  0  0  0  0  0  0  0  0  0  0  0
  -16.4242   14.0359    0.0000 H   0  0  0  0  0  0  0  0  0  0  0  0
  -21.1547    9.9462    0.0000 H   0  0  0  0  0  0  0  0  0  0  0  0
  -21.9841    9.1298    0.0000 H   0  0  0  0  0  0  0  0  0  0  0  0
  -24.6206    8.0599    0.0000 H   0  0  0  0  0  0  0  0  0  0  0  0
  -23.5879    6.6047    0.0000 H   0  0  0  0  0  0  0  0  0  0  0  0
  -21.1101   10.7801    0.0000 H   0  0  0  0  0  0  0  0  0  0  0  0
  -22.9242   13.3067    0.0000 H   0  0  0  0  0  0  0  0  0  0  0  0
  -26.0978   13.7852    0.0000 H   0  0  0  0  0  0  0  0  0  0  0  0
  -28.7499   12.3830    0.0000 H   0  0  0  0  0  0  0  0  0  0  0  0
  -28.8617    9.3850    0.0000 H   0  0  0  0  0  0  0  0  0  0  0  0
  -26.3213    7.7893    0.0000 H   0  0  0  0  0  0  0  0  0  0  0  0
  -24.7500    5.8322    0.0000 H   0  0  0  0  0  0  0  0  0  0  0  0
  -24.9214    4.8593    0.0000 H   0  0  0  0  0  0  0  0  0  0  0  0
  -26.5610    2.5338    0.0000 H   0  0  0  0  0  0  0  0  0  0  0  0
  -24.9054    1.8680    0.0000 H   0  0  0  0  0  0  0  0  0  0  0  0
  -28.9551    4.8256    0.0000 H   0  0  0  0  0  0  0  0  0  0  0  0
  -28.1267    2.3631    0.0000 H   0  0  0  0  0  0  0  0  0  0  0  0
  -25.4654    0.5898    0.0000 H   0  0  0  0  0  0  0  0  0  0  0  0
  -25.0837   -0.3213    0.0000 H   0  0  0  0  0  0  0  0  0  0  0  0
  -25.2057   -3.1641    0.0000 H   0  0  0  0  0  0  0  0  0  0  0  0
  -23.4530   -2.8291    0.0000 H   0  0  0  0  0  0  0  0  0  0  0  0
  -28.0666    0.0379    0.0000 H   0  0  0  0  0  0  0  0  0  0  0  0
  -23.3453   -4.0625    0.0000 H   0  0  0  0  0  0  0  0  0  0  0  0
  -19.6162   -6.5404    0.0000 H   0  0  0  0  0  0  0  0  0  0  0  0
  -20.8005   -6.1126    0.0000 H   0  0  0  0  0  0  0  0  0  0  0  0
  -18.1182   -7.0756    0.0000 H   0  0  0  0  0  0  0  0  0  0  0  0
  -19.1830   -6.8404    0.0000 H   0  0  0  0  0  0  0  0  0  0  0  0
  -16.3670   -7.2784    0.0000 H   0  0  0  0  0  0  0  0  0  0  0  0
  -17.6212   -7.1677    0.0000 H   0  0  0  0  0  0  0  0  0  0  0  0
  -14.6090   -7.1461    0.0000 H   0  0  0  0  0  0  0  0  0  0  0  0
  -15.8616   -7.2747    0.0000 H   0  0  0  0  0  0  0  0  0  0  0  0
  -12.9079   -6.6835    0.0000 H   0  0  0  0  0  0  0  0  0  0  0  0
  -14.1135   -7.0469    0.0000 H   0  0  0  0  0  0  0  0  0  0  0  0
  -11.2226   -5.7554    0.0000 H   0  0  0  0  0  0  0  0  0  0  0  0
  -12.4401   -6.4923    0.0000 H   0  0  0  0  0  0  0  0  0  0  0  0
  -10.3234   -5.3466    0.0000 H   0  0  0  0  0  0  0  0  0  0  0  0
  -23.0196   -6.1418    0.0000 H   0  0  0  0  0  0  0  0  0  0  0  0
  -23.9193   -4.7780    0.0000 H   0  0  0  0  0  0  0  0  0  0  0  0
  -23.0393   -3.4013    0.0000 H   0  0  0  0  0  0  0  0  0  0  0  0
  -23.8514   -5.6211    0.0000 H   0  0  0  0  0  0  0  0  0  0  0  0
  -21.1982   -7.7333    0.0000 H   0  0  0  0  0  0  0  0  0  0  0  0
  -21.4905  -10.5372    0.0000 H   0  0  0  0  0  0  0  0  0  0  0  0
  -20.9605   -8.6831    0.0000 H   0  0  0  0  0  0  0  0  0  0  0  0
  -23.0444  -11.7923    0.0000 H   0  0  0  0  0  0  0  0  0  0  0  0
  -23.1220  -10.9644    0.0000 H   0  0  0  0  0  0  0  0  0  0  0  0
  -25.7736   -9.0649    0.0000 H   0  0  0  0  0  0  0  0  0  0  0  0
  -26.9019  -12.1481    0.0000 H   0  0  0  0  0  0  0  0  0  0  0  0
  -29.4339   -9.3193    0.0000 H   0  0  0  0  0  0  0  0  0  0  0  0
  -28.2898   -7.9614    0.0000 H   0  0  0  0  0  0  0  0  0  0  0  0
  -26.6406   -8.6429    0.0000 H   0  0  0  0  0  0  0  0  0  0  0  0
  -29.5338  -12.3135    0.0000 H   0  0  0  0  0  0  0  0  0  0  0  0
  -27.7736  -12.6066    0.0000 H   0  0  0  0  0  0  0  0  0  0  0  0
  -31.0398  -11.0012    0.0000 H   0  0  0  0  0  0  0  0  0  0  0  0
  -30.5098   -9.1471    0.0000 H   0  0  0  0  0  0  0  0  0  0  0  0
  -28.8762   -9.1172    0.0000 H   0  0  0  0  0  0  0  0  0  0  0  0
  -24.6865  -14.4180    0.0000 H   0  0  0  0  0  0  0  0  0  0  0  0
  1  2  1  0
  2  3  1  0
  3  4  2  0
  4  5  1  0
  5  6  2  0
  6  7  1  0
  7  8  2  0
  7  9  1  0
  9 10  1  0
 10 11  1  0
 11 12  2  0
  9 13  1  0
 13 14  1  0
 14 15  2  0
 15 16  1  0
 16 17  2  0
 17 18  1  0
 16 19  1  0
 14 20  1  0
 20 21  1  0
 21 22  2  0
 22 23  1  0
 23 24  2  0
 24 25  1  0
 25 26  2  0
 25 27  1  0
  1 28  2  0
  1 29  1  0
 29 30  1  0
 30 31  1  0
 31 32  1  0
 32 33  2  0
 32 34  1  0
 34 35  1  0
 35 36  1  0
 36 37  1  0
 37 38  1  0
 38 39  2  0
 38 40  1  0
 35 41  1  0
 41 42  2  0
 41 43  1  0
 43 44  1  0
 44 45  1  0
 45 46  1  0
 46 47  2  0
 46 48  1  0
 44 49  1  0
 49 50  2  0
 49 51  1  0
 51 52  1  0
 52 53  1  0
 53 54  1  0
 53 55  1  0
 55 56  1  0
 52 57  1  0
 57 58  2  0
 57 59  1  0
 59 60  1  0
 60 61  1  0
 61 62  1  0
 61 63  1  0
 63 64  1  0
 60 65  1  0
 65 66  2  0
 65 67  1  0
 67 68  1  0
 68 69  1  0
 69 70  1  0
 70 71  1  0
 71 72  1  0
 72 73  1  0
 73 74  2  3
 73 75  1  0
 68 76  1  0
 76 77  2  0
 76 78  1  0
 78 79  1  0
 79 80  1  0
 80 81  1  0
 81 82  1  0
 81 83  2  0
 79 84  1  0
 84 85  2  0
 84 86  1  0
 86 87  1  0
 87 88  1  0
 88 89  1  0
 88 90  1  0
 90 91  1  0
 87 92  1  0
 92 93  2  0
 92 94  1  0
 94 95  1  0
 95 96  1  0
 95 97  1  0
 97 98  2  0
 97 99  1  0
100 99  1  1
100101  1  0
101102  1  0
102103  1  0
103104  1  0
100105  1  0
100106  1  0
106107  2  0
106108  1  0
108109  1  0
109110  1  0
110111  1  0
111112  2  0
112113  1  0
113114  1  0
114115  2  0
109116  1  0
116117  2  0
116118  1  0
118119  1  0
119120  1  0
120121  1  0
121122  1  0
121123  1  0
119124  1  0
124125  2  0
124126  1  0
126127  1  0
127128  1  0
127129  1  0
129130  2  0
129131  1  0
131132  1  0
132133  1  0
133134  1  0
134135  1  0
135136  1  0
132137  1  0
137138  1  0
138139  1  0
139140  1  0
132141  1  0
141142  2  0
141143  1  0
143144  1  0
144145  1  0
145146  1  0
144147  1  0
147148  2  0
147149  1  0
149150  1  0
150151  1  0
151152  2  0
151153  1  0
153154  1  0
154155  1  0
155156  1  0
156157  2  0
156158  1  0
154159  1  0
159160  2  0
159161  1  0
161162  1  0
162163  1  0
163164  1  0
164165  2  0
165166  1  0
166167  1  0
167168  2  0
168169  1  0
169170  2  0
170171  1  0
171172  2  0
162173  1  0
173174  2  0
173175  1  0
175176  1  0
176177  1  0
177178  1  0
178179  1  0
178180  2  0
176181  1  0
181182  2  0
181183  1  0
183184  1  0
184185  1  0
185186  1  0
186187  2  0
186188  1  0
184189  1  0
189190  2  0
189191  1  0
191192  1  0
192193  1  0
193194  1  0
194195  1  0
195196  1  0
196197  1  0
197198  1  0
198199  1  0
192200  1  0
192201  1  1
201202  2  0
201203  1  0
203204  1  0
204205  1  0
205206  1  0
204207  1  0
207208  2  0
207209  1  0
209210  1  0
210211  1  0
211212  1  0
211213  1  0
213214  1  0
210215  1  0
215216  2  0
215217  1  0
  8  3  1  0
115111  1  0
172164  1  0
 11  6  1  0
104136  2  0
172167  1  0
 18 13  2  0
140199  2  0
 22  9  1  0
 26 21  1  0
  2218  1  0
  4219  1  0
  5220  1  0
  8221  1  0
 15222  1  0
 17223  1  0
 18224  1  0
 19225  1  0
 23226  1  0
 24227  1  0
 26228  1  0
 27229  1  0
 29230  1  0
 30231  1  0
 30232  1  0
 31233  1  0
 31234  1  0
 34235  1  0
 35236  1  1
 36237  1  0
 36238  1  0
 37239  1  0
 37240  1  0
 40241  1  0
 43242  1  0
 44243  1  1
 45244  1  0
 45245  1  0
 48246  1  0
 51247  1  0
 52248  1  1
 53249  1  6
 54250  1  0
 54251  1  0
 54252  1  0
 55253  1  0
 55254  1  0
 56255  1  0
 56256  1  0
 56257  1  0
 59258  1  0
 60259  1  1
 61260  1  6
 62261  1  0
 62262  1  0
 62263  1  0
 63264  1  0
 63265  1  0
 64266  1  0
 64267  1  0
 64268  1  0
 67269  1  0
 68270  1  1
 69271  1  0
 69272  1  0
 70273  1  0
 70274  1  0
 71275  1  0
 71276  1  0
 72277  1  0
 74278  1  0
 75279  1  0
 75280  1  0
 78281  1  0
 79282  1  1
 80283  1  0
 80284  1  0
 82285  1  0
 82286  1  0
 86287  1  0
 87288  1  1
 88289  1  6
 89290  1  0
 89291  1  0
 89292  1  0
 90293  1  0
 90294  1  0
 91295  1  0
 91296  1  0
 91297  1  0
 94298  1  0
 95299  1  1
 96300  1  0
 96301  1  0
 96302  1  0
 99303  1  0
101304  1  0
101305  1  0
102306  1  0
102307  1  0
103308  1  0
103309  1  0
104310  1  0
105311  1  0
105312  1  0
105313  1  0
108314  1  0
109315  1  6
110316  1  0
110317  1  0
112318  1  0
113319  1  0
114320  1  0
118321  1  0
119322  1  6
120323  1  0
120324  1  0
121325  1  0
122326  1  0
122327  1  0
122328  1  0
123329  1  0
123330  1  0
123331  1  0
126332  1  0
127333  1  6
128334  1  0
128335  1  0
128336  1  0
131337  1  0
133338  1  0
133339  1  0
134340  1  0
134341  1  0
135342  1  0
135343  1  0
136344  1  0
137345  1  0
137346  1  0
138347  1  0
138348  1  0
139349  1  0
139350  1  0
140351  1  0
143352  1  0
144353  1  6
145354  1  0
145355  1  0
146356  1  0
146357  1  0
146358  1  0
149359  1  0
150360  1  0
150361  1  0
153362  1  0
154363  1  6
155364  1  0
155365  1  0
158366  1  0
161367  1  0
162368  1  6
163369  1  0
163370  1  0
165371  1  0
166372  1  0
168373  1  0
169374  1  0
170375  1  0
171376  1  0
175377  1  0
176378  1  1
177379  1  0
177380  1  0
179381  1  0
179382  1  0
183383  1  0
184384  1  6
185385  1  0
185386  1  0
188387  1  0
191388  1  0
193389  1  0
193390  1  0
194391  1  0
194392  1  0
195393  1  0
195394  1  0
196395  1  0
196396  1  0
197397  1  0
197398  1  0
198399  1  0
198400  1  0
199401  1  0
200402  1  0
200403  1  0
200404  1  0
203405  1  0
204406  1  1
205407  1  0
205408  1  0
206409  1  0
209410  1  0
210411  1  6
211412  1  1
212413  1  0
212414  1  0
212415  1  0
213416  1  0
213417  1  0
214418  1  0
214419  1  0
214420  1  0
217421  1  0
M  END
