
     RDKit          2D

375376  0  0  0  0  0  0  0  0999 V2000
  -36.2890   -1.8765    0.0000 N   0  0  0  0  0  0  0  0  0  0  0  0
  -34.8990   -2.4403    0.0000 C   0  0  0  0  0  0  0  0  0  0  0  0
  -33.7157   -1.5184    0.0000 C   0  0  0  0  0  0  0  0  0  0  0  0
  -32.3257   -2.0822    0.0000 C   0  0  0  0  0  0  0  0  0  0  0  0
  -32.1190   -3.5679    0.0000 O   0  0  0  0  0  0  0  0  0  0  0  0
  -31.1424   -1.1603    0.0000 N   0  0  0  0  0  0  0  0  0  0  0  0
  -29.7524   -1.7241    0.0000 C   0  0  0  0  0  0  0  0  0  0  0  0
  -29.4386   -0.2573    0.0000 C   0  0  0  0  0  0  0  0  0  0  0  0
  -30.4211    0.8761    0.0000 O   0  0  0  0  0  0  0  0  0  0  0  0
  -28.6391   -2.7293    0.0000 C   0  0  0  0  0  0  0  0  0  0  0  0
  -27.2119   -2.2677    0.0000 O   0  0  0  0  0  0  0  0  0  0  0  0
  -28.9529   -4.1961    0.0000 N   0  0  0  0  0  0  0  0  0  0  0  0
  -27.8396   -5.2013    0.0000 C   0  0  0  0  0  0  0  0  0  0  0  0
  -29.0228   -6.1232    0.0000 C   0  0  0  0  0  0  0  0  0  0  0  0
  -29.8194   -7.3942    0.0000 O   0  0  0  0  0  0  0  0  0  0  0  0
  -30.4128   -5.5594    0.0000 C   0  0  0  0  0  0  0  0  0  0  0  0
  -26.4495   -5.7651    0.0000 C   0  0  0  0  0  0  0  0  0  0  0  0
  -26.4254   -7.2649    0.0000 O   0  0  0  0  0  0  0  0  0  0  0  0
  -25.2663   -4.8432    0.0000 N   0  0  0  0  0  0  0  0  0  0  0  0
  -23.8763   -5.4070    0.0000 C   0  0  0  0  0  0  0  0  0  0  0  0
  -24.6729   -6.6780    0.0000 C   0  0  0  0  0  0  0  0  0  0  0  0
  -22.3773   -5.4614    0.0000 C   0  0  0  0  0  0  0  0  0  0  0  0
  -21.8416   -6.8625    0.0000 O   0  0  0  0  0  0  0  0  0  0  0  0
  -21.5807   -4.1904    0.0000 N   0  0  0  0  0  0  0  0  0  0  0  0
  -20.0816   -4.2448    0.0000 C   0  0  0  0  0  0  0  0  0  0  0  0
  -20.3955   -5.7116    0.0000 C   0  0  0  0  0  0  0  0  0  0  0  0
  -19.2821   -6.7168    0.0000 C   0  0  0  0  0  0  0  0  0  0  0  0
  -19.5960   -8.1836    0.0000 C   0  0  0  0  0  0  0  0  0  0  0  0
  -17.8921   -7.2805    0.0000 C   0  0  0  0  0  0  0  0  0  0  0  0
  -18.6544   -3.7832    0.0000 C   0  0  0  0  0  0  0  0  0  0  0  0
  -17.5411   -4.7884    0.0000 O   0  0  0  0  0  0  0  0  0  0  0  0
  -18.3406   -2.3164    0.0000 N   0  0  0  0  0  0  0  0  0  0  0  0
  -16.9134   -1.8548    0.0000 C   0  0  0  0  0  0  0  0  0  0  0  0
  -17.6158   -0.5294    0.0000 C   0  0  0  0  0  0  0  0  0  0  0  0
  -19.1148   -0.4750    0.0000 C   0  0  0  0  0  0  0  0  0  0  0  0
  -19.8172    0.8504    0.0000 C   0  0  0  0  0  0  0  0  0  0  0  0
  -21.3162    0.9047    0.0000 N   0  0  0  0  0  0  0  0  0  0  0  0
  -22.0186    2.2301    0.0000 C   0  0  0  0  0  0  0  0  0  0  0  0
  -23.5176    2.2845    0.0000 N   0  0  0  0  0  0  0  0  0  0  0  0
  -21.2220    3.5011    0.0000 N   0  0  0  0  0  0  0  0  0  0  0  0
  -15.4143   -1.9091    0.0000 C   0  0  0  0  0  0  0  0  0  0  0  0
  -14.8787   -3.3103    0.0000 O   0  0  0  0  0  0  0  0  0  0  0  0
  -14.6177   -0.6382    0.0000 N   0  0  0  0  0  0  0  0  0  0  0  0
  -13.1187   -0.6925    0.0000 C   0  0  0  0  0  0  0  0  0  0  0  0
  -12.1676   -1.8524    0.0000 C   0  0  0  0  0  0  0  0  0  0  0  0
  -10.9169   -2.6805    0.0000 C   0  0  0  0  0  0  0  0  0  0  0  0
   -9.4776   -3.1031    0.0000 C   0  0  0  0  0  0  0  0  0  0  0  0
   -7.9778   -3.0827    0.0000 C   0  0  0  0  0  0  0  0  0  0  0  0
  -13.9437   -1.9453    0.0000 C   0  0  0  0  0  0  0  0  0  0  0  0
  -13.6857    0.6962    0.0000 C   0  0  0  0  0  0  0  0  0  0  0  0
  -15.1756    0.5229    0.0000 O   0  0  0  0  0  0  0  0  0  0  0  0
  -13.8181    2.1903    0.0000 N   0  0  0  0  0  0  0  0  0  0  0  0
  -13.5043    3.6571    0.0000 C   0  0  0  0  0  0  0  0  0  0  0  0
  -14.9704    3.3399    0.0000 C   0  0  0  0  0  0  0  0  0  0  0  0
  -15.9781    4.4510    0.0000 C   0  0  0  0  0  0  0  0  0  0  0  0
  -17.4442    4.1338    0.0000 C   0  0  0  0  0  0  0  0  0  0  0  0
  -16.5450    5.8397    0.0000 C   0  0  0  0  0  0  0  0  0  0  0  0
  -12.7720    4.9663    0.0000 C   0  0  0  0  0  0  0  0  0  0  0  0
  -13.9574    5.8854    0.0000 O   0  0  0  0  0  0  0  0  0  0  0  0
  -11.6864    6.0014    0.0000 N   0  0  0  0  0  0  0  0  0  0  0  0
  -10.3439    6.6705    0.0000 C   0  0  0  0  0  0  0  0  0  0  0  0
  -11.5060    7.6190    0.0000 C   0  0  0  0  0  0  0  0  0  0  0  0
  -11.0870    9.0593    0.0000 C   0  0  0  0  0  0  0  0  0  0  0  0
  -12.9224    8.1128    0.0000 C   0  0  0  0  0  0  0  0  0  0  0  0
  -13.2030    9.5863    0.0000 C   0  0  0  0  0  0  0  0  0  0  0  0
   -8.8639    6.9143    0.0000 C   0  0  0  0  0  0  0  0  0  0  0  0
   -8.8843    8.4141    0.0000 O   0  0  0  0  0  0  0  0  0  0  0  0
   -7.3777    6.7109    0.0000 N   0  0  0  0  0  0  0  0  0  0  0  0
   -6.0175    6.0785    0.0000 C   0  0  0  0  0  0  0  0  0  0  0  0
   -6.0006    7.5784    0.0000 C   0  0  0  0  0  0  0  0  0  0  0  0
   -4.6931    8.3137    0.0000 C   0  0  0  0  0  0  0  0  0  0  0  0
   -4.6761    9.8136    0.0000 C   0  0  0  0  0  0  0  0  0  0  0  0
   -3.3687   10.5488    0.0000 O   0  0  0  0  0  0  0  0  0  0  0  0
   -5.9666   10.5782    0.0000 O   0  0  0  0  0  0  0  0  0  0  0  0
   -4.9042    5.0733    0.0000 C   0  0  0  0  0  0  0  0  0  0  0  0
   -3.7443    6.0244    0.0000 O   0  0  0  0  0  0  0  0  0  0  0  0
   -4.1366    3.7846    0.0000 N   0  0  0  0  0  0  0  0  0  0  0  0
   -3.7829    2.3269    0.0000 C   0  0  0  0  0  0  0  0  0  0  0  0
   -3.8747    0.8297    0.0000 C   0  0  0  0  0  0  0  0  0  0  0  0
   -4.4036   -0.5739    0.0000 C   0  0  0  0  0  0  0  0  0  0  0  0
   -5.3228   -1.7593    0.0000 C   0  0  0  0  0  0  0  0  0  0  0  0
   -6.5506   -2.6211    0.0000 C   0  0  0  0  0  0  0  0  0  0  0  0
   -2.3806    1.7945    0.0000 C   0  0  0  0  0  0  0  0  0  0  0  0
   -2.5997    3.2488    0.0000 C   0  0  0  0  0  0  0  0  0  0  0  0
   -2.6238    4.7486    0.0000 O   0  0  0  0  0  0  0  0  0  0  0  0
   -1.2097    2.6850    0.0000 N   0  0  0  0  0  0  0  0  0  0  0  0
   -0.0264    3.6069    0.0000 C   0  0  0  0  0  0  0  0  0  0  0  0
    0.7702    4.8779    0.0000 C   0  0  0  0  0  0  0  0  0  0  0  0
    2.2692    4.8235    0.0000 C   0  0  0  0  0  0  0  0  0  0  0  0
    3.0658    6.0945    0.0000 C   0  0  0  0  0  0  0  0  0  0  0  0
    3.6592    4.2597    0.0000 C   0  0  0  0  0  0  0  0  0  0  0  0
    1.3636    3.0431    0.0000 C   0  0  0  0  0  0  0  0  0  0  0  0
    1.5704    1.5574    0.0000 O   0  0  0  0  0  0  0  0  0  0  0  0
    2.5469    3.9650    0.0000 N   0  0  0  0  0  0  0  0  0  0  0  0
    3.9369    3.4012    0.0000 C   0  0  0  0  0  0  0  0  0  0  0  0
    5.0503    2.3960    0.0000 C   0  0  0  0  0  0  0  0  0  0  0  0
    4.7364    0.9292    0.0000 C   0  0  0  0  0  0  0  0  0  0  0  0
    5.1202    4.3231    0.0000 C   0  0  0  0  0  0  0  0  0  0  0  0
    5.0961    5.8229    0.0000 O   0  0  0  0  0  0  0  0  0  0  0  0
    6.5102    3.7593    0.0000 N   0  0  0  0  0  0  0  0  0  0  0  0
    7.6934    4.6812    0.0000 C   0  0  0  0  0  0  0  0  0  0  0  0
    8.4900    5.9522    0.0000 C   0  0  0  0  0  0  0  0  0  0  0  0
    7.7876    7.2775    0.0000 C   0  0  0  0  0  0  0  0  0  0  0  0
    8.5842    8.5485    0.0000 N   0  0  0  0  0  0  0  0  0  0  0  0
    6.2886    7.3319    0.0000 O   0  0  0  0  0  0  0  0  0  0  0  0
    9.0835    4.1174    0.0000 C   0  0  0  0  0  0  0  0  0  0  0  0
   10.3703    4.8882    0.0000 O   0  0  0  0  0  0  0  0  0  0  0  0
    9.2902    2.6317    0.0000 N   0  0  0  0  0  0  0  0  0  0  0  0
   10.6802    2.0679    0.0000 C   0  0  0  0  0  0  0  0  0  0  0  0
   12.1792    2.0135    0.0000 C   0  0  0  0  0  0  0  0  0  0  0  0
   13.0380    0.7836    0.0000 C   0  0  0  0  0  0  0  0  0  0  0  0
   13.6064    2.4751    0.0000 C   0  0  0  0  0  0  0  0  0  0  0  0
   13.9203    3.9419    0.0000 C   0  0  0  0  0  0  0  0  0  0  0  0
   10.8870    0.5822    0.0000 C   0  0  0  0  0  0  0  0  0  0  0  0
    9.7037   -0.3397    0.0000 O   0  0  0  0  0  0  0  0  0  0  0  0
   12.2770    0.0184    0.0000 N   0  0  0  0  0  0  0  0  0  0  0  0
   12.4837   -1.4673    0.0000 C   0  0  0  0  0  0  0  0  0  0  0  0
   12.1699   -2.9341    0.0000 C   0  0  0  0  0  0  0  0  0  0  0  0
   11.3733   -4.2051    0.0000 O   0  0  0  0  0  0  0  0  0  0  0  0
   13.1524   -4.0675    0.0000 C   0  0  0  0  0  0  0  0  0  0  0  0
   13.8737   -2.0311    0.0000 C   0  0  0  0  0  0  0  0  0  0  0  0
   15.0570   -1.1092    0.0000 O   0  0  0  0  0  0  0  0  0  0  0  0
   14.0805   -3.5167    0.0000 N   0  0  0  0  0  0  0  0  0  0  0  0
   15.4705   -4.0805    0.0000 C   0  0  0  0  0  0  0  0  0  0  0  0
   16.9695   -4.1349    0.0000 C   0  0  0  0  0  0  0  0  0  0  0  0
   17.7661   -2.8639    0.0000 C   0  0  0  0  0  0  0  0  0  0  0  0
   19.2651   -2.9183    0.0000 C   0  0  0  0  0  0  0  0  0  0  0  0
   20.0617   -1.6473    0.0000 N   0  0  0  0  0  0  0  0  0  0  0  0
   19.9675   -4.2437    0.0000 O   0  0  0  0  0  0  0  0  0  0  0  0
   15.6773   -5.5662    0.0000 C   0  0  0  0  0  0  0  0  0  0  0  0
   14.4940   -6.4881    0.0000 O   0  0  0  0  0  0  0  0  0  0  0  0
   17.0673   -6.1300    0.0000 N   0  0  0  0  0  0  0  0  0  0  0  0
   17.2740   -7.6157    0.0000 C   0  0  0  0  0  0  0  0  0  0  0  0
   16.9602   -9.0825    0.0000 C   0  0  0  0  0  0  0  0  0  0  0  0
   15.5329   -9.5441    0.0000 C   0  0  0  0  0  0  0  0  0  0  0  0
   15.2191  -11.0109    0.0000 N   0  0  0  0  0  0  0  0  0  0  0  0
   14.4196   -8.5389    0.0000 O   0  0  0  0  0  0  0  0  0  0  0  0
   18.6640   -8.1795    0.0000 C   0  0  0  0  0  0  0  0  0  0  0  0
   19.0503   -9.6289    0.0000 O   0  0  0  0  0  0  0  0  0  0  0  0
   19.8473   -7.2576    0.0000 N   0  0  0  0  0  0  0  0  0  0  0  0
   21.2373   -7.8214    0.0000 C   0  0  0  0  0  0  0  0  0  0  0  0
   22.3507   -8.8266    0.0000 C   0  0  0  0  0  0  0  0  0  0  0  0
   23.7779   -8.3650    0.0000 C   0  0  0  0  0  0  0  0  0  0  0  0
   24.8912   -9.3702    0.0000 C   0  0  0  0  0  0  0  0  0  0  0  0
   26.3184   -8.9086    0.0000 N   0  0  0  0  0  0  0  0  0  0  0  0
   24.5774  -10.8370    0.0000 O   0  0  0  0  0  0  0  0  0  0  0  0
   22.4206   -6.8995    0.0000 C   0  0  0  0  0  0  0  0  0  0  0  0
   23.8689   -7.2896    0.0000 O   0  0  0  0  0  0  0  0  0  0  0  0
   22.2138   -5.4138    0.0000 N   0  0  0  0  0  0  0  0  0  0  0  0
   23.3971   -4.4919    0.0000 C   0  0  0  0  0  0  0  0  0  0  0  0
   24.8243   -4.0303    0.0000 C   0  0  0  0  0  0  0  0  0  0  0  0
   25.1382   -2.5635    0.0000 C   0  0  0  0  0  0  0  0  0  0  0  0
   26.5654   -2.1019    0.0000 C   0  0  0  0  0  0  0  0  0  0  0  0
   26.8792   -0.6351    0.0000 C   0  0  0  0  0  0  0  0  0  0  0  0
   28.3064   -0.1735    0.0000 N   0  0  0  0  0  0  0  0  0  0  0  0
   23.1903   -3.0062    0.0000 C   0  0  0  0  0  0  0  0  0  0  0  0
   24.2524   -1.9470    0.0000 O   0  0  0  0  0  0  0  0  0  0  0  0
   21.8003   -2.4424    0.0000 N   0  0  0  0  0  0  0  0  0  0  0  0
   21.5936   -0.9568    0.0000 C   0  0  0  0  0  0  0  0  0  0  0  0
   22.0839    0.4608    0.0000 C   0  0  0  0  0  0  0  0  0  0  0  0
   20.2036   -0.3930    0.0000 C   0  0  0  0  0  0  0  0  0  0  0  0
   19.0203   -1.3149    0.0000 O   0  0  0  0  0  0  0  0  0  0  0  0
   19.9968    1.0927    0.0000 N   0  0  0  0  0  0  0  0  0  0  0  0
   18.6734    1.7987    0.0000 C   0  0  0  0  0  0  0  0  0  0  0  0
   18.9358    3.2756    0.0000 C   0  0  0  0  0  0  0  0  0  0  0  0
   20.4215    3.4823    0.0000 C   0  0  0  0  0  0  0  0  0  0  0  0
   21.0772    2.1332    0.0000 C   0  0  0  0  0  0  0  0  0  0  0  0
   22.3504    2.9264    0.0000 C   0  0  0  0  0  0  0  0  0  0  0  0
   23.6739    2.2204    0.0000 O   0  0  0  0  0  0  0  0  0  0  0  0
   22.3001    4.4256    0.0000 N   0  0  0  0  0  0  0  0  0  0  0  0
   23.5732    5.2187    0.0000 C   0  0  0  0  0  0  0  0  0  0  0  0
   25.0409    5.5286    0.0000 C   0  0  0  0  0  0  0  0  0  0  0  0
   26.0430    4.4125    0.0000 C   0  0  0  0  0  0  0  0  0  0  0  0
   27.5107    4.7224    0.0000 C   0  0  0  0  0  0  0  0  0  0  0  0
   26.6031    3.0210    0.0000 C   0  0  0  0  0  0  0  0  0  0  0  0
   23.5229    6.7179    0.0000 C   0  0  0  0  0  0  0  0  0  0  0  0
   24.6899    7.6603    0.0000 O   0  0  0  0  0  0  0  0  0  0  0  0
   22.1994    7.4239    0.0000 O   0  0  0  0  0  0  0  0  0  0  0  0
  -37.4723   -2.7984    0.0000 H   0  0  0  0  0  0  0  0  0  0  0  0
  -36.4957   -0.3908    0.0000 H   0  0  0  0  0  0  0  0  0  0  0  0
  -35.6956   -3.7113    0.0000 H   0  0  0  0  0  0  0  0  0  0  0  0
  -33.7856   -3.4455    0.0000 H   0  0  0  0  0  0  0  0  0  0  0  0
  -34.8291   -0.5132    0.0000 H   0  0  0  0  0  0  0  0  0  0  0  0
  -32.9191   -0.2474    0.0000 H   0  0  0  0  0  0  0  0  0  0  0  0
  -31.5287    0.2891    0.0000 H   0  0  0  0  0  0  0  0  0  0  0  0
  -30.5490   -2.9951    0.0000 H   0  0  0  0  0  0  0  0  0  0  0  0
  -28.6420    1.0137    0.0000 H   0  0  0  0  0  0  0  0  0  0  0  0
  -28.0486   -0.8211    0.0000 H   0  0  0  0  0  0  0  0  0  0  0  0
  -30.2381    2.2147    0.0000 H   0  0  0  0  0  0  0  0  0  0  0  0
  -29.7356   -4.3471    0.0000 H   0  0  0  0  0  0  0  0  0  0  0  0
  -27.0430   -3.9303    0.0000 H   0  0  0  0  0  0  0  0  0  0  0  0
  -27.9095   -7.1284    0.0000 H   0  0  0  0  0  0  0  0  0  0  0  0
  -29.1170   -8.7196    0.0000 H   0  0  0  0  0  0  0  0  0  0  0  0
  -31.5961   -6.4813    0.0000 H   0  0  0  0  0  0  0  0  0  0  0  0
  -31.5262   -4.5542    0.0000 H   0  0  0  0  0  0  0  0  0  0  0  0
  -30.2427   -4.6901    0.0000 H   0  0  0  0  0  0  0  0  0  0  0  0
  -25.4730   -3.3575    0.0000 H   0  0  0  0  0  0  0  0  0  0  0  0
  -23.5624   -3.9402    0.0000 H   0  0  0  0  0  0  0  0  0  0  0  0
  -26.1673   -6.8067    0.0000 H   0  0  0  0  0  0  0  0  0  0  0  0
  -24.9867   -8.1448    0.0000 H   0  0  0  0  0  0  0  0  0  0  0  0
  -23.2829   -7.2418    0.0000 H   0  0  0  0  0  0  0  0  0  0  0  0
  -22.2831   -2.8650    0.0000 H   0  0  0  0  0  0  0  0  0  0  0  0
  -20.2884   -2.7591    0.0000 H   0  0  0  0  0  0  0  0  0  0  0  0
  -21.1921   -6.9825    0.0000 H   0  0  0  0  0  0  0  0  0  0  0  0
  -21.8806   -5.5009    0.0000 H   0  0  0  0  0  0  0  0  0  0  0  0
  -18.4855   -5.4458    0.0000 H   0  0  0  0  0  0  0  0  0  0  0  0
  -18.6135   -9.3170    0.0000 H   0  0  0  0  0  0  0  0  0  0  0  0
  -20.3926   -9.4545    0.0000 H   0  0  0  0  0  0  0  0  0  0  0  0
  -21.0444   -7.7934    0.0000 H   0  0  0  0  0  0  0  0  0  0  0  0
  -17.5058   -8.7300    0.0000 H   0  0  0  0  0  0  0  0  0  0  0  0
  -16.3931   -7.3349    0.0000 H   0  0  0  0  0  0  0  0  0  0  0  0
  -17.5783   -5.8138    0.0000 H   0  0  0  0  0  0  0  0  0  0  0  0
  -19.5682   -1.4544    0.0000 H   0  0  0  0  0  0  0  0  0  0  0  0
  -16.7066   -3.3405    0.0000 H   0  0  0  0  0  0  0  0  0  0  0  0
  -17.6399    0.9704    0.0000 H   0  0  0  0  0  0  0  0  0  0  0  0
  -16.1886   -0.0678    0.0000 H   0  0  0  0  0  0  0  0  0  0  0  0
  -20.5420   -0.9366    0.0000 H   0  0  0  0  0  0  0  0  0  0  0  0
  -19.4543   -1.9361    0.0000 H   0  0  0  0  0  0  0  0  0  0  0  0
  -20.0240    2.3360    0.0000 H   0  0  0  0  0  0  0  0  0  0  0  0
  -18.4569    1.4825    0.0000 H   0  0  0  0  0  0  0  0  0  0  0  0
  -22.1128   -0.3663    0.0000 H   0  0  0  0  0  0  0  0  0  0  0  0
  -24.2201    3.6099    0.0000 H   0  0  0  0  0  0  0  0  0  0  0  0
  -24.3142    1.0135    0.0000 H   0  0  0  0  0  0  0  0  0  0  0  0
  -21.9244    4.8265    0.0000 H   0  0  0  0  0  0  0  0  0  0  0  0
  -19.7230    3.4467    0.0000 H   0  0  0  0  0  0  0  0  0  0  0  0
  -15.4765    0.5917    0.0000 H   0  0  0  0  0  0  0  0  0  0  0  0
  -12.4080   -3.3331    0.0000 H   0  0  0  0  0  0  0  0  0  0  0  0
  -13.5577   -2.4160    0.0000 H   0  0  0  0  0  0  0  0  0  0  0  0
  -10.8928   -4.1803    0.0000 H   0  0  0  0  0  0  0  0  0  0  0  0
  -12.0791   -3.6287    0.0000 H   0  0  0  0  0  0  0  0  0  0  0  0
   -8.8422   -4.4618    0.0000 H   0  0  0  0  0  0  0  0  0  0  0  0
  -10.3088   -4.3518    0.0000 H   0  0  0  0  0  0  0  0  0  0  0  0
   -7.7341   -4.5627    0.0000 H   0  0  0  0  0  0  0  0  0  0  0  0
  -15.1969   -2.4499    0.0000 H   0  0  0  0  0  0  0  0  0  0  0  0
  -13.7582   -3.5164    0.0000 H   0  0  0  0  0  0  0  0  0  0  0  0
  -12.6359   -2.9978    0.0000 H   0  0  0  0  0  0  0  0  0  0  0  0
  -15.3153    2.2821    0.0000 H   0  0  0  0  0  0  0  0  0  0  0  0
  -14.2427    4.9628    0.0000 H   0  0  0  0  0  0  0  0  0  0  0  0
  -16.1326    2.3917    0.0000 H   0  0  0  0  0  0  0  0  0  0  0  0
  -14.7563    1.8553    0.0000 H   0  0  0  0  0  0  0  0  0  0  0  0
  -14.8158    5.3992    0.0000 H   0  0  0  0  0  0  0  0  0  0  0  0
  -18.5798    5.1137    0.0000 H   0  0  0  0  0  0  0  0  0  0  0  0
  -18.7133    3.3343    0.0000 H   0  0  0  0  0  0  0  0  0  0  0  0
  -17.0507    2.6863    0.0000 H   0  0  0  0  0  0  0  0  0  0  0  0
  -17.9953    6.2227    0.0000 H   0  0  0  0  0  0  0  0  0  0  0  0
  -16.6028    7.3386    0.0000 H   0  0  0  0  0  0  0  0  0  0  0  0
  -15.0790    6.1569    0.0000 H   0  0  0  0  0  0  0  0  0  0  0  0
  -12.6914    7.1149    0.0000 H   0  0  0  0  0  0  0  0  0  0  0  0
   -9.7836    8.0619    0.0000 H   0  0  0  0  0  0  0  0  0  0  0  0
  -12.5333    6.5260    0.0000 H   0  0  0  0  0  0  0  0  0  0  0  0
  -12.2972   10.2041    0.0000 H   0  0  0  0  0  0  0  0  0  0  0  0
  -10.5334   10.4087    0.0000 H   0  0  0  0  0  0  0  0  0  0  0  0
   -9.7997    8.7821    0.0000 H   0  0  0  0  0  0  0  0  0  0  0  0
  -14.4223    8.0924    0.0000 H   0  0  0  0  0  0  0  0  0  0  0  0
  -13.3415    6.6725    0.0000 H   0  0  0  0  0  0  0  0  0  0  0  0
  -14.6193   10.0801    0.0000 H   0  0  0  0  0  0  0  0  0  0  0  0
  -12.9626   11.0669    0.0000 H   0  0  0  0  0  0  0  0  0  0  0  0
  -11.7526    9.9691    0.0000 H   0  0  0  0  0  0  0  0  0  0  0  0
   -6.9551    8.1501    0.0000 H   0  0  0  0  0  0  0  0  0  0  0  0
   -4.5803    6.5079    0.0000 H   0  0  0  0  0  0  0  0  0  0  0  0
   -6.4976    8.9937    0.0000 H   0  0  0  0  0  0  0  0  0  0  0  0
   -7.4956    7.7001    0.0000 H   0  0  0  0  0  0  0  0  0  0  0  0
   -3.2130    8.5574    0.0000 H   0  0  0  0  0  0  0  0  0  0  0  0
   -4.0273    6.9695    0.0000 H   0  0  0  0  0  0  0  0  0  0  0  0
   -2.8273    4.5166    0.0000 H   0  0  0  0  0  0  0  0  0  0  0  0
   -2.4178    1.1869    0.0000 H   0  0  0  0  0  0  0  0  0  0  0  0
   -2.8128   -0.2298    0.0000 H   0  0  0  0  0  0  0  0  0  0  0  0
   -2.9062   -0.6620    0.0000 H   0  0  0  0  0  0  0  0  0  0  0  0
   -3.5449   -1.8038    0.0000 H   0  0  0  0  0  0  0  0  0  0  0  0
   -3.9179   -2.2848    0.0000 H   0  0  0  0  0  0  0  0  0  0  0  0
   -5.0423   -3.2328    0.0000 H   0  0  0  0  0  0  0  0  0  0  0  0
   -5.8814   -3.9635    0.0000 H   0  0  0  0  0  0  0  0  0  0  0  0
   -1.0692    2.1193    0.0000 H   0  0  0  0  0  0  0  0  0  0  0  0
   -1.6110    0.4123    0.0000 H   0  0  0  0  0  0  0  0  0  0  0  0
   -2.8243    0.1755    0.0000 H   0  0  0  0  0  0  0  0  0  0  0  0
   -0.8234    1.2356    0.0000 H   0  0  0  0  0  0  0  0  0  0  0  0
   -1.1398    4.6121    0.0000 H   0  0  0  0  0  0  0  0  0  0  0  0
    0.9029    6.3720    0.0000 H   0  0  0  0  0  0  0  0  0  0  0  0
   -0.6198    5.4417    0.0000 H   0  0  0  0  0  0  0  0  0  0  0  0
    2.6809    3.3811    0.0000 H   0  0  0  0  0  0  0  0  0  0  0  0
    4.5334    6.4044    0.0000 H   0  0  0  0  0  0  0  0  0  0  0  0
    3.3797    7.5613    0.0000 H   0  0  0  0  0  0  0  0  0  0  0  0
    1.7549    6.8235    0.0000 H   0  0  0  0  0  0  0  0  0  0  0  0
    4.2193    2.8682    0.0000 H   0  0  0  0  0  0  0  0  0  0  0  0
    5.0781    4.7462    0.0000 H   0  0  0  0  0  0  0  0  0  0  0  0
    4.1495    5.6773    0.0000 H   0  0  0  0  0  0  0  0  0  0  0  0
    2.7058    5.4565    0.0000 H   0  0  0  0  0  0  0  0  0  0  0  0
    2.9913    2.2368    0.0000 H   0  0  0  0  0  0  0  0  0  0  0  0
    6.3612    1.6669    0.0000 H   0  0  0  0  0  0  0  0  0  0  0  0
    6.2495    3.2970    0.0000 H   0  0  0  0  0  0  0  0  0  0  0  0
    5.8498   -0.0760    0.0000 H   0  0  0  0  0  0  0  0  0  0  0  0
    3.9398   -0.3418    0.0000 H   0  0  0  0  0  0  0  0  0  0  0  0
    3.2880    1.3193    0.0000 H   0  0  0  0  0  0  0  0  0  0  0  0
    6.8965    2.3099    0.0000 H   0  0  0  0  0  0  0  0  0  0  0  0
    6.5801    5.6864    0.0000 H   0  0  0  0  0  0  0  0  0  0  0  0
    9.6733    6.8740    0.0000 H   0  0  0  0  0  0  0  0  0  0  0  0
    9.7176    5.0902    0.0000 H   0  0  0  0  0  0  0  0  0  0  0  0
    7.8818    9.8739    0.0000 H   0  0  0  0  0  0  0  0  0  0  0  0
   10.0832    8.4941    0.0000 H   0  0  0  0  0  0  0  0  0  0  0  0
    8.1069    1.7098    0.0000 H   0  0  0  0  0  0  0  0  0  0  0  0
   10.9941    3.5347    0.0000 H   0  0  0  0  0  0  0  0  0  0  0  0
   11.7929    3.4629    0.0000 H   0  0  0  0  0  0  0  0  0  0  0  0
   14.3629    0.4514    0.0000 H   0  0  0  0  0  0  0  0  0  0  0  0
   13.0884   -0.7975    0.0000 H   0  0  0  0  0  0  0  0  0  0  0  0
   11.8383   -0.3896    0.0000 H   0  0  0  0  0  0  0  0  0  0  0  0
   15.1055    2.4207    0.0000 H   0  0  0  0  0  0  0  0  0  0  0  0
   14.1665    1.0836    0.0000 H   0  0  0  0  0  0  0  0  0  0  0  0
   15.3475    4.4035    0.0000 H   0  0  0  0  0  0  0  0  0  0  0  0
   13.7135    5.4276    0.0000 H   0  0  0  0  0  0  0  0  0  0  0  0
   12.4391    4.1786    0.0000 H   0  0  0  0  0  0  0  0  0  0  0  0
   13.6482    0.6266    0.0000 H   0  0  0  0  0  0  0  0  0  0  0  0
   10.9847   -1.4129    0.0000 H   0  0  0  0  0  0  0  0  0  0  0  0
   10.7799   -2.3703    0.0000 H   0  0  0  0  0  0  0  0  0  0  0  0
    9.8743   -4.1507    0.0000 H   0  0  0  0  0  0  0  0  0  0  0  0
   12.9694   -5.4061    0.0000 H   0  0  0  0  0  0  0  0  0  0  0  0
   14.6732   -4.5031    0.0000 H   0  0  0  0  0  0  0  0  0  0  0  0
   14.5834   -3.1912    0.0000 H   0  0  0  0  0  0  0  0  0  0  0  0
   13.0184   -4.5760    0.0000 H   0  0  0  0  0  0  0  0  0  0  0  0
   15.6032   -2.5864    0.0000 H   0  0  0  0  0  0  0  0  0  0  0  0
   18.4179   -4.5251    0.0000 H   0  0  0  0  0  0  0  0  0  0  0  0
   17.0199   -5.6341    0.0000 H   0  0  0  0  0  0  0  0  0  0  0  0
   18.0800   -1.3971    0.0000 H   0  0  0  0  0  0  0  0  0  0  0  0
   16.4552   -2.1349    0.0000 H   0  0  0  0  0  0  0  0  0  0  0  0
   21.4107   -0.9914    0.0000 H   0  0  0  0  0  0  0  0  0  0  0  0
   19.3593   -0.3219    0.0000 H   0  0  0  0  0  0  0  0  0  0  0  0
   18.3541   -5.3592    0.0000 H   0  0  0  0  0  0  0  0  0  0  0  0
   15.7750   -7.5613    0.0000 H   0  0  0  0  0  0  0  0  0  0  0  0
   17.1669  -10.5682    0.0000 H   0  0  0  0  0  0  0  0  0  0  0  0
   18.4414   -9.3192    0.0000 H   0  0  0  0  0  0  0  0  0  0  0  0
   13.7919  -11.4725    0.0000 H   0  0  0  0  0  0  0  0  0  0  0  0
   16.3325  -12.0161    0.0000 H   0  0  0  0  0  0  0  0  0  0  0  0
   19.6405   -5.7719    0.0000 H   0  0  0  0  0  0  0  0  0  0  0  0
   20.4407   -9.0924    0.0000 H   0  0  0  0  0  0  0  0  0  0  0  0
   23.0531  -10.1520    0.0000 H   0  0  0  0  0  0  0  0  0  0  0  0
   21.1674   -9.7485    0.0000 H   0  0  0  0  0  0  0  0  0  0  0  0
   24.9611   -7.4431    0.0000 H   0  0  0  0  0  0  0  0  0  0  0  0
   23.5972   -6.8759    0.0000 H   0  0  0  0  0  0  0  0  0  0  0  0
   27.4318   -9.9138    0.0000 H   0  0  0  0  0  0  0  0  0  0  0  0
   26.6323   -7.4418    0.0000 H   0  0  0  0  0  0  0  0  0  0  0  0
   20.8238   -4.8500    0.0000 H   0  0  0  0  0  0  0  0  0  0  0  0
   24.0995   -5.8173    0.0000 H   0  0  0  0  0  0  0  0  0  0  0  0
   26.3055   -4.2670    0.0000 H   0  0  0  0  0  0  0  0  0  0  0  0
   25.0310   -5.5160    0.0000 H   0  0  0  0  0  0  0  0  0  0  0  0
   24.7518   -1.1141    0.0000 H   0  0  0  0  0  0  0  0  0  0  0  0
   23.7582   -1.9755    0.0000 H   0  0  0  0  0  0  0  0  0  0  0  0
   28.0466   -2.3386    0.0000 H   0  0  0  0  0  0  0  0  0  0  0  0
   26.9517   -3.5513    0.0000 H   0  0  0  0  0  0  0  0  0  0  0  0
   26.4929    0.8143    0.0000 H   0  0  0  0  0  0  0  0  0  0  0  0
   25.3980   -0.3984    0.0000 H   0  0  0  0  0  0  0  0  0  0  0  0
   28.6203    1.2933    0.0000 H   0  0  0  0  0  0  0  0  0  0  0  0
   29.8054   -0.2279    0.0000 H   0  0  0  0  0  0  0  0  0  0  0  0
   28.6927   -1.6229    0.0000 H   0  0  0  0  0  0  0  0  0  0  0  0
   20.6171   -3.3643    0.0000 H   0  0  0  0  0  0  0  0  0  0  0  0
   23.0926   -1.0111    0.0000 H   0  0  0  0  0  0  0  0  0  0  0  0
   21.3965    1.9203    0.0000 H   0  0  0  0  0  0  0  0  0  0  0  0
   22.7040    1.7810    0.0000 H   0  0  0  0  0  0  0  0  0  0  0  0
   23.2974   -0.0538    0.0000 H   0  0  0  0  0  0  0  0  0  0  0  0
   18.1096    0.4087    0.0000 H   0  0  0  0  0  0  0  0  0  0  0  0
   17.2320    2.2141    0.0000 H   0  0  0  0  0  0  0  0  0  0  0  0
   17.4396    3.3822    0.0000 H   0  0  0  0  0  0  0  0  0  0  0  0
   18.8855    4.7747    0.0000 H   0  0  0  0  0  0  0  0  0  0  0  0
   20.0606    4.9383    0.0000 H   0  0  0  0  0  0  0  0  0  0  0  0
   21.6662    4.3195    0.0000 H   0  0  0  0  0  0  0  0  0  0  0  0
   22.1365    1.0712    0.0000 H   0  0  0  0  0  0  0  0  0  0  0  0
   20.9766    5.1316    0.0000 H   0  0  0  0  0  0  0  0  0  0  0  0
   23.9594    3.7693    0.0000 H   0  0  0  0  0  0  0  0  0  0  0  0
   26.2078    6.4710    0.0000 H   0  0  0  0  0  0  0  0  0  0  0  0
   24.6546    6.9780    0.0000 H   0  0  0  0  0  0  0  0  0  0  0  0
   24.8761    3.4701    0.0000 H   0  0  0  0  0  0  0  0  0  0  0  0
   28.6414    3.7368    0.0000 H   0  0  0  0  0  0  0  0  0  0  0  0
   28.7838    5.5155    0.0000 H   0  0  0  0  0  0  0  0  0  0  0  0
   27.1245    6.1718    0.0000 H   0  0  0  0  0  0  0  0  0  0  0  0
   28.0514    2.6307    0.0000 H   0  0  0  0  0  0  0  0  0  0  0  0
   26.4703    1.5269    0.0000 H   0  0  0  0  0  0  0  0  0  0  0  0
   25.1354    2.7111    0.0000 H   0  0  0  0  0  0  0  0  0  0  0  0
  1  2  1  0
  2  3  1  0
  3  4  1  0
  4  5  2  0
  4  6  1  0
  6  7  1  0
  7  8  1  0
  8  9  1  0
  7 10  1  0
 10 11  2  0
 10 12  1  0
 12 13  1  0
 13 14  1  0
 14 15  1  0
 14 16  1  0
 13 17  1  0
 17 18  2  0
 17 19  1  0
 19 20  1  0
 20 21  1  0
 20 22  1  0
 22 23  2  0
 22 24  1  0
 24 25  1  0
 25 26  1  0
 26 27  1  0
 27 28  1  0
 27 29  1  0
 25 30  1  0
 30 31  2  0
 30 32  1  0
 32 33  1  0
 33 34  1  0
 34 35  1  0
 35 36  1  0
 36 37  1  0
 37 38  1  0
 38 39  2  3
 38 40  1  0
 33 41  1  0
 41 42  2  0
 41 43  1  0
 44 43  1  6
 44 45  1  0
 45 46  1  0
 46 47  1  0
 47 48  1  0
 44 49  1  0
 44 50  1  0
 50 51  2  0
 50 52  1  0
 52 53  1  0
 53 54  1  0
 54 55  1  0
 55 56  1  0
 55 57  1  0
 53 58  1  0
 58 59  2  0
 58 60  1  0
 60 61  1  0
 61 62  1  0
 62 63  1  0
 62 64  1  0
 64 65  1  0
 61 66  1  0
 66 67  2  0
 66 68  1  0
 68 69  1  0
 69 70  1  0
 70 71  1  0
 71 72  1  0
 72 73  2  0
 72 74  1  0
 69 75  1  0
 75 76  2  0
 75 77  1  0
 77 78  1  0
 78 79  1  0
 79 80  1  0
 80 81  1  0
 81 82  1  0
 78 83  1  0
 78 84  1  6
 84 85  2  0
 84 86  1  0
 86 87  1  0
 87 88  1  0
 88 89  1  0
 89 90  1  0
 89 91  1  0
 87 92  1  0
 92 93  2  0
 92 94  1  0
 94 95  1  0
 95 96  1  0
 96 97  1  0
 95 98  1  0
 98 99  2  0
 98100  1  0
100101  1  0
101102  1  0
102103  1  0
103104  1  0
103105  2  0
101106  1  0
106107  2  0
106108  1  0
108109  1  0
109110  1  0
110111  1  0
110112  1  0
112113  1  0
109114  1  0
114115  2  0
114116  1  0
116117  1  0
117118  1  0
118119  1  0
118120  1  0
117121  1  0
121122  2  0
121123  1  0
123124  1  0
124125  1  0
125126  1  0
126127  1  0
127128  1  0
127129  2  0
124130  1  0
130131  2  0
130132  1  0
132133  1  0
133134  1  0
134135  1  0
135136  1  0
135137  2  0
133138  1  0
138139  2  0
138140  1  0
140141  1  0
141142  1  0
142143  1  0
143144  1  0
144145  1  0
144146  2  0
141147  1  0
147148  2  0
147149  1  0
149150  1  0
150151  1  0
151152  1  0
152153  1  0
153154  1  0
154155  1  0
150156  1  0
156157  2  0
156158  1  0
158159  1  0
159160  1  0
159161  1  0
161162  2  0
161163  1  0
163164  1  0
164165  1  0
165166  1  0
166167  1  0
167168  1  0
168169  2  0
168170  1  0
170171  1  0
171172  1  0
172173  1  0
173174  1  0
173175  1  0
171176  1  0
176177  2  0
176178  1  0
167163  1  0
 48 82  2  0
  1179  1  0
  1180  1  0
  2181  1  0
  2182  1  0
  3183  1  0
  3184  1  0
  6185  1  0
  7186  1  1
  8187  1  0
  8188  1  0
  9189  1  0
 12190  1  0
 13191  1  6
 14192  1  1
 15193  1  0
 16194  1  0
 16195  1  0
 16196  1  0
 19197  1  0
 20198  1  6
 21199  1  0
 21200  1  0
 21201  1  0
 24202  1  0
 25203  1  6
 26204  1  0
 26205  1  0
 27206  1  0
 28207  1  0
 28208  1  0
 28209  1  0
 29210  1  0
 29211  1  0
 29212  1  0
 32213  1  0
 33214  1  1
 34215  1  0
 34216  1  0
 35217  1  0
 35218  1  0
 36219  1  0
 36220  1  0
 37221  1  0
 39222  1  0
 39223  1  0
 40224  1  0
 40225  1  0
 43226  1  0
 45227  1  0
 45228  1  0
 46229  1  0
 46230  1  0
 47231  1  0
 47232  1  0
 48233  1  0
 49234  1  0
 49235  1  0
 49236  1  0
 52237  1  0
 53238  1  1
 54239  1  0
 54240  1  0
 55241  1  0
 56242  1  0
 56243  1  0
 56244  1  0
 57245  1  0
 57246  1  0
 57247  1  0
 60248  1  0
 61249  1  1
 62250  1  1
 63251  1  0
 63252  1  0
 63253  1  0
 64254  1  0
 64255  1  0
 65256  1  0
 65257  1  0
 65258  1  0
 68259  1  0
 69260  1  1
 70261  1  0
 70262  1  0
 71263  1  0
 71264  1  0
 77265  1  0
 79266  1  0
 79267  1  0
 80268  1  0
 80269  1  0
 81270  1  0
 81271  1  0
 82272  1  0
 83273  1  0
 83274  1  0
 83275  1  0
 86276  1  0
 87277  1  1
 88278  1  0
 88279  1  0
 89280  1  0
 90281  1  0
 90282  1  0
 90283  1  0
 91284  1  0
 91285  1  0
 91286  1  0
 94287  1  0
 95288  1  6
 96289  1  0
 96290  1  0
 97291  1  0
 97292  1  0
 97293  1  0
100294  1  0
101295  1  1
102296  1  0
102297  1  0
104298  1  0
104299  1  0
108300  1  0
109301  1  1
110302  1  1
111303  1  0
111304  1  0
111305  1  0
112306  1  0
112307  1  0
113308  1  0
113309  1  0
113310  1  0
116311  1  0
117312  1  6
118313  1  6
119314  1  0
120315  1  0
120316  1  0
120317  1  0
123318  1  0
124319  1  1
125320  1  0
125321  1  0
126322  1  0
126323  1  0
128324  1  0
128325  1  0
132326  1  0
133327  1  6
134328  1  0
134329  1  0
136330  1  0
136331  1  0
140332  1  0
141333  1  6
142334  1  0
142335  1  0
143336  1  0
143337  1  0
145338  1  0
145339  1  0
149340  1  0
150341  1  6
151342  1  0
151343  1  0
152344  1  0
152345  1  0
153346  1  0
153347  1  0
154348  1  0
154349  1  0
155350  1  0
155351  1  0
155352  1  0
158353  1  0
159354  1  6
160355  1  0
160356  1  0
160357  1  0
164358  1  0
164359  1  0
165360  1  0
165361  1  0
166362  1  0
166363  1  0
167364  1  0
170365  1  0
171366  1  6
172367  1  0
172368  1  0
173369  1  0
174370  1  0
174371  1  0
174372  1  0
175373  1  0
175374  1  0
175375  1  0
M  CHG  4  39   1  74  -1 155   1 178  -1
M  END
