
     RDKit          2D

351359  0  0  0  0  0  0  0  0999 V2000
  -28.9159   -0.1264    0.0000 C   0  0  0  0  0  0  0  0  0  0  0  0
  -30.1663   -0.9551    0.0000 N   0  0  0  0  0  0  0  0  0  0  0  0
  -31.5091   -0.2866    0.0000 C   0  0  0  0  0  0  0  0  0  0  0  0
  -31.6015    1.2105    0.0000 C   0  0  0  0  0  0  0  0  0  0  0  0
  -32.9443    1.8790    0.0000 C   0  0  0  0  0  0  0  0  0  0  0  0
  -34.1947    1.0503    0.0000 C   0  0  0  0  0  0  0  0  0  0  0  0
  -34.1022   -0.4468    0.0000 C   0  0  0  0  0  0  0  0  0  0  0  0
  -32.7594   -1.1153    0.0000 C   0  0  0  0  0  0  0  0  0  0  0  0
  -35.4975   -0.9974    0.0000 C   0  0  0  0  0  0  0  0  0  0  0  0
  -36.4523    0.1594    0.0000 O   0  0  0  0  0  0  0  0  0  0  0  0
  -35.6471    1.4250    0.0000 C   0  0  0  0  0  0  0  0  0  0  0  0
  -36.1977    2.8203    0.0000 O   0  0  0  0  0  0  0  0  0  0  0  0
  -36.9427   -1.3991    0.0000 C   0  0  0  0  0  0  0  0  0  0  0  0
  -37.3174   -2.8516    0.0000 C   0  0  0  0  0  0  0  0  0  0  0  0
  -38.7626   -3.2533    0.0000 C   0  0  0  0  0  0  0  0  0  0  0  0
  -39.8331   -2.2026    0.0000 C   0  0  0  0  0  0  0  0  0  0  0  0
  -39.4584   -0.7502    0.0000 C   0  0  0  0  0  0  0  0  0  0  0  0
  -38.0132   -0.3484    0.0000 C   0  0  0  0  0  0  0  0  0  0  0  0
  -41.2783   -2.6044    0.0000 O   0  0  0  0  0  0  0  0  0  0  0  0
  -36.2469   -3.9023    0.0000 O   0  0  0  0  0  0  0  0  0  0  0  0
  -34.8017   -3.5006    0.0000 C   0  0  0  0  0  0  0  0  0  0  0  0
  -34.4270   -2.0481    0.0000 C   0  0  0  0  0  0  0  0  0  0  0  0
  -33.1566   -2.3242    0.0000 C   0  0  0  0  0  0  0  0  0  0  0  0
  -32.5857   -2.8846    0.0000 C   0  0  0  0  0  0  0  0  0  0  0  0
  -32.7855   -3.6592    0.0000 C   0  0  0  0  0  0  0  0  0  0  0  0
  -33.5563   -3.8735    0.0000 C   0  0  0  0  0  0  0  0  0  0  0  0
  -31.2154   -5.2003    0.0000 O   0  0  0  0  0  0  0  0  0  0  0  0
  -29.0084    1.3707    0.0000 S   0  0  0  0  0  0  0  0  0  0  0  0
  -27.5731   -0.7949    0.0000 N   0  0  0  0  0  0  0  0  0  0  0  0
  -26.3228    0.0337    0.0000 C   0  0  0  0  0  0  0  0  0  0  0  0
  -24.9800   -0.6347    0.0000 C   0  0  0  0  0  0  0  0  0  0  0  0
  -23.7297    0.1939    0.0000 C   0  0  0  0  0  0  0  0  0  0  0  0
  -23.8221    1.6911    0.0000 O   0  0  0  0  0  0  0  0  0  0  0  0
  -22.3869   -0.4746    0.0000 N   0  0  0  0  0  0  0  0  0  0  0  0
  -21.1365    0.3541    0.0000 C   0  0  0  0  0  0  0  0  0  0  0  0
  -20.2450    1.5604    0.0000 C   0  0  0  0  0  0  0  0  0  0  0  0
  -18.7546    1.3915    0.0000 C   0  0  0  0  0  0  0  0  0  0  0  0
  -17.8631    2.5979    0.0000 C   0  0  0  0  0  0  0  0  0  0  0  0
  -16.6481    2.6092    0.0000 O   0  0  0  0  0  0  0  0  0  0  0  0
  -18.4620    3.9731    0.0000 O   0  0  0  0  0  0  0  0  0  0  0  0
  -19.7937   -0.3144    0.0000 C   0  0  0  0  0  0  0  0  0  0  0  0
  -19.7012   -1.8115    0.0000 O   0  0  0  0  0  0  0  0  0  0  0  0
  -18.5434    0.5143    0.0000 N   0  0  0  0  0  0  0  0  0  0  0  0
  -17.2006   -0.1542    0.0000 C   0  0  0  0  0  0  0  0  0  0  0  0
  -16.1674   -1.2416    0.0000 C   0  0  0  0  0  0  0  0  0  0  0  0
  -16.5925   -2.6801    0.0000 C   0  0  0  0  0  0  0  0  0  0  0  0
  -15.5593   -3.7675    0.0000 C   0  0  0  0  0  0  0  0  0  0  0  0
  -15.9845   -5.2060    0.0000 N   0  0  0  0  0  0  0  0  0  0  0  0
  -14.9513   -6.2935    0.0000 C   0  0  0  0  0  0  0  0  0  0  0  0
  -15.3765   -7.7320    0.0000 N   0  0  0  0  0  0  0  0  0  0  0  0
  -13.4930   -5.9424    0.0000 N   0  0  0  0  0  0  0  0  0  0  0  0
  -15.9503    0.6745    0.0000 C   0  0  0  0  0  0  0  0  0  0  0  0
  -15.8768    1.8873    0.0000 O   0  0  0  0  0  0  0  0  0  0  0  0
  -14.6075    0.0060    0.0000 N   0  0  0  0  0  0  0  0  0  0  0  0
  -13.3571    0.8347    0.0000 C   0  0  0  0  0  0  0  0  0  0  0  0
  -12.4656    2.0410    0.0000 C   0  0  0  0  0  0  0  0  0  0  0  0
  -10.9752    1.8721    0.0000 C   0  0  0  0  0  0  0  0  0  0  0  0
  -10.0837    3.0784    0.0000 C   0  0  0  0  0  0  0  0  0  0  0  0
   -9.6324    1.2036    0.0000 C   0  0  0  0  0  0  0  0  0  0  0  0
  -12.0143    0.1662    0.0000 C   0  0  0  0  0  0  0  0  0  0  0  0
  -11.9218   -1.3310    0.0000 O   0  0  0  0  0  0  0  0  0  0  0  0
  -10.7640    0.9948    0.0000 N   0  0  0  0  0  0  0  0  0  0  0  0
   -9.4212    0.3264    0.0000 C   0  0  0  0  0  0  0  0  0  0  0  0
   -8.3880   -0.7611    0.0000 C   0  0  0  0  0  0  0  0  0  0  0  0
   -8.8131   -2.1996    0.0000 C   0  0  0  0  0  0  0  0  0  0  0  0
   -7.7799   -3.2870    0.0000 C   0  0  0  0  0  0  0  0  0  0  0  0
   -8.2051   -4.7255    0.0000 N   0  0  0  0  0  0  0  0  0  0  0  0
   -7.1719   -5.8129    0.0000 C   0  0  0  0  0  0  0  0  0  0  0  0
   -7.5971   -7.2514    0.0000 N   0  0  0  0  0  0  0  0  0  0  0  0
   -5.7136   -5.4619    0.0000 N   0  0  0  0  0  0  0  0  0  0  0  0
   -8.1709    1.1550    0.0000 C   0  0  0  0  0  0  0  0  0  0  0  0
   -8.0802    2.6523    0.0000 O   0  0  0  0  0  0  0  0  0  0  0  0
   -6.8281    0.4865    0.0000 N   0  0  0  0  0  0  0  0  0  0  0  0
   -5.5777    1.3152    0.0000 C   0  0  0  0  0  0  0  0  0  0  0  0
   -4.6862    2.5215    0.0000 C   0  0  0  0  0  0  0  0  0  0  0  0
   -3.1958    2.3526    0.0000 C   0  0  0  0  0  0  0  0  0  0  0  0
   -2.3043    3.5590    0.0000 C   0  0  0  0  0  0  0  0  0  0  0  0
   -0.8138    3.3901    0.0000 N   0  0  0  0  0  0  0  0  0  0  0  0
    0.0777    4.5964    0.0000 C   0  0  0  0  0  0  0  0  0  0  0  0
    1.5682    4.4275    0.0000 N   0  0  0  0  0  0  0  0  0  0  0  0
   -0.5213    5.9716    0.0000 N   0  0  0  0  0  0  0  0  0  0  0  0
   -4.2349    0.6467    0.0000 C   0  0  0  0  0  0  0  0  0  0  0  0
   -4.1424   -0.8504    0.0000 O   0  0  0  0  0  0  0  0  0  0  0  0
   -2.9846    1.4754    0.0000 N   0  0  0  0  0  0  0  0  0  0  0  0
   -1.6418    0.8069    0.0000 C   0  0  0  0  0  0  0  0  0  0  0  0
   -0.6086   -0.2805    0.0000 C   0  0  0  0  0  0  0  0  0  0  0  0
   -1.0337   -1.7190    0.0000 C   0  0  0  0  0  0  0  0  0  0  0  0
   -0.0005   -2.8064    0.0000 C   0  0  0  0  0  0  0  0  0  0  0  0
   -0.4257   -4.2449    0.0000 N   0  0  0  0  0  0  0  0  0  0  0  0
    0.6075   -5.3324    0.0000 C   0  0  0  0  0  0  0  0  0  0  0  0
    0.1823   -6.7709    0.0000 N   0  0  0  0  0  0  0  0  0  0  0  0
    2.0658   -4.9813    0.0000 N   0  0  0  0  0  0  0  0  0  0  0  0
   -0.3915    1.6356    0.0000 C   0  0  0  0  0  0  0  0  0  0  0  0
   -0.1928    2.7109    0.0000 O   0  0  0  0  0  0  0  0  0  0  0  0
    0.9514    0.9671    0.0000 N   0  0  0  0  0  0  0  0  0  0  0  0
    2.2017    1.7958    0.0000 C   0  0  0  0  0  0  0  0  0  0  0  0
    3.0932    3.0021    0.0000 C   0  0  0  0  0  0  0  0  0  0  0  0
    4.5931    3.0161    0.0000 C   0  0  0  0  0  0  0  0  0  0  0  0
    3.5183    4.4406    0.0000 C   0  0  0  0  0  0  0  0  0  0  0  0
    4.9230    4.9668    0.0000 C   0  0  0  0  0  0  0  0  0  0  0  0
    3.5445    1.1273    0.0000 C   0  0  0  0  0  0  0  0  0  0  0  0
    3.4538   -0.3700    0.0000 O   0  0  0  0  0  0  0  0  0  0  0  0
    4.7948    1.9559    0.0000 N   0  0  0  0  0  0  0  0  0  0  0  0
    6.1376    1.2875    0.0000 C   0  0  0  0  0  0  0  0  0  0  0  0
    6.5249   -0.1617    0.0000 C   0  0  0  0  0  0  0  0  0  0  0  0
    7.3222   -1.4323    0.0000 C   0  0  0  0  0  0  0  0  0  0  0  0
    8.4585   -2.4114    0.0000 C   0  0  0  0  0  0  0  0  0  0  0  0
    9.8329   -3.0121    0.0000 C   0  0  0  0  0  0  0  0  0  0  0  0
    4.8690    0.4871    0.0000 C   0  0  0  0  0  0  0  0  0  0  0  0
    6.1947    2.7864    0.0000 C   0  0  0  0  0  0  0  0  0  0  0  0
    5.4355    3.0294    0.0000 O   0  0  0  0  0  0  0  0  0  0  0  0
    6.6910    4.2019    0.0000 N   0  0  0  0  0  0  0  0  0  0  0  0
    7.5825    5.4082    0.0000 C   0  0  0  0  0  0  0  0  0  0  0  0
    7.2679    6.8749    0.0000 C   0  0  0  0  0  0  0  0  0  0  0  0
    8.3808    7.8806    0.0000 C   0  0  0  0  0  0  0  0  0  0  0  0
    9.8082    7.4197    0.0000 C   0  0  0  0  0  0  0  0  0  0  0  0
   10.9211    8.4255    0.0000 C   0  0  0  0  0  0  0  0  0  0  0  0
   10.6065    9.8921    0.0000 C   0  0  0  0  0  0  0  0  0  0  0  0
    9.1790   10.3530    0.0000 C   0  0  0  0  0  0  0  0  0  0  0  0
    8.0662    9.3473    0.0000 C   0  0  0  0  0  0  0  0  0  0  0  0
    8.7900    6.2982    0.0000 C   0  0  0  0  0  0  0  0  0  0  0  0
    8.4317    7.7548    0.0000 O   0  0  0  0  0  0  0  0  0  0  0  0
   10.2061    6.7927    0.0000 N   0  0  0  0  0  0  0  0  0  0  0  0
   11.7051    6.8478    0.0000 C   0  0  0  0  0  0  0  0  0  0  0  0
   12.6556    8.0082    0.0000 C   0  0  0  0  0  0  0  0  0  0  0  0
   12.1259    9.4116    0.0000 S   0  0  0  0  0  0  0  0  0  0  0  0
   13.1537    6.4587    0.0000 C   0  0  0  0  0  0  0  0  0  0  0  0
   13.7544    7.8331    0.0000 O   0  0  0  0  0  0  0  0  0  0  0  0
   14.4233    5.6598    0.0000 N   0  0  0  0  0  0  0  0  0  0  0  0
   15.4010    4.5222    0.0000 C   0  0  0  0  0  0  0  0  0  0  0  0
   16.9009    4.5026    0.0000 C   0  0  0  0  0  0  0  0  0  0  0  0
   17.6678    5.7917    0.0000 C   0  0  0  0  0  0  0  0  0  0  0  0
   19.1677    5.7720    0.0000 C   0  0  0  0  0  0  0  0  0  0  0  0
   19.9347    7.0611    0.0000 N   0  0  0  0  0  0  0  0  0  0  0  0
   21.4345    7.0414    0.0000 C   0  0  0  0  0  0  0  0  0  0  0  0
   22.2015    8.3305    0.0000 N   0  0  0  0  0  0  0  0  0  0  0  0
   22.1674    5.7327    0.0000 N   0  0  0  0  0  0  0  0  0  0  0  0
   16.0000    3.1470    0.0000 C   0  0  0  0  0  0  0  0  0  0  0  0
   17.4491    3.5343    0.0000 O   0  0  0  0  0  0  0  0  0  0  0  0
   16.1670    1.6563    0.0000 N   0  0  0  0  0  0  0  0  0  0  0  0
   15.8871    0.1826    0.0000 C   0  0  0  0  0  0  0  0  0  0  0  0
   15.1854   -1.1431    0.0000 C   0  0  0  0  0  0  0  0  0  0  0  0
   14.1241   -2.2031    0.0000 C   0  0  0  0  0  0  0  0  0  0  0  0
   12.7974   -2.9031    0.0000 C   0  0  0  0  0  0  0  0  0  0  0  0
   11.3234   -3.1810    0.0000 C   0  0  0  0  0  0  0  0  0  0  0  0
   17.3455    0.5337    0.0000 C   0  0  0  0  0  0  0  0  0  0  0  0
   16.8069   -1.0023    0.0000 C   0  0  0  0  0  0  0  0  0  0  0  0
   16.5936   -2.4870    0.0000 O   0  0  0  0  0  0  0  0  0  0  0  0
   18.2930   -0.7982    0.0000 N   0  0  0  0  0  0  0  0  0  0  0  0
   19.2128   -1.9831    0.0000 C   0  0  0  0  0  0  0  0  0  0  0  0
   19.6718   -3.4111    0.0000 C   0  0  0  0  0  0  0  0  0  0  0  0
   18.6646   -4.5227    0.0000 C   0  0  0  0  0  0  0  0  0  0  0  0
   18.9719   -5.9908    0.0000 C   0  0  0  0  0  0  0  0  0  0  0  0
   17.6705   -6.7368    0.0000 N   0  0  0  0  0  0  0  0  0  0  0  0
   16.5590   -5.7296    0.0000 C   0  0  0  0  0  0  0  0  0  0  0  0
   17.1734   -4.3612    0.0000 N   0  0  0  0  0  0  0  0  0  0  0  0
   20.6988   -1.7789    0.0000 C   0  0  0  0  0  0  0  0  0  0  0  0
   21.2651   -0.3899    0.0000 O   0  0  0  0  0  0  0  0  0  0  0  0
   21.6186   -2.9639    0.0000 N   0  0  0  0  0  0  0  0  0  0  0  0
   23.1046   -2.7597    0.0000 C   0  0  0  0  0  0  0  0  0  0  0  0
   24.4313   -2.0597    0.0000 C   0  0  0  0  0  0  0  0  0  0  0  0
   25.7008   -2.8586    0.0000 C   0  0  0  0  0  0  0  0  0  0  0  0
   27.0934   -2.3010    0.0000 C   0  0  0  0  0  0  0  0  0  0  0  0
   28.0539   -3.4531    0.0000 N   0  0  0  0  0  0  0  0  0  0  0  0
   27.2551   -4.7227    0.0000 C   0  0  0  0  0  0  0  0  0  0  0  0
   25.8008   -4.3552    0.0000 N   0  0  0  0  0  0  0  0  0  0  0  0
   24.0244   -3.9447    0.0000 C   0  0  0  0  0  0  0  0  0  0  0  0
   23.4582   -5.3337    0.0000 O   0  0  0  0  0  0  0  0  0  0  0  0
   25.5105   -3.7405    0.0000 N   0  0  0  0  0  0  0  0  0  0  0  0
   26.4303   -4.9254    0.0000 C   0  0  0  0  0  0  0  0  0  0  0  0
   26.8893   -6.3535    0.0000 C   0  0  0  0  0  0  0  0  0  0  0  0
   25.8821   -7.4650    0.0000 O   0  0  0  0  0  0  0  0  0  0  0  0
   27.9163   -4.7213    0.0000 C   0  0  0  0  0  0  0  0  0  0  0  0
   28.8019   -3.5106    0.0000 O   0  0  0  0  0  0  0  0  0  0  0  0
   28.8361   -5.9062    0.0000 N   0  0  0  0  0  0  0  0  0  0  0  0
   30.3221   -5.7021    0.0000 C   0  0  0  0  0  0  0  0  0  0  0  0
   31.6488   -5.0021    0.0000 C   0  0  0  0  0  0  0  0  0  0  0  0
   32.6560   -3.8905    0.0000 O   0  0  0  0  0  0  0  0  0  0  0  0
   32.9183   -5.8009    0.0000 C   0  0  0  0  0  0  0  0  0  0  0  0
   31.2419   -6.8870    0.0000 C   0  0  0  0  0  0  0  0  0  0  0  0
   32.7418   -6.8656    0.0000 O   0  0  0  0  0  0  0  0  0  0  0  0
   30.6757   -8.2761    0.0000 O   0  0  0  0  0  0  0  0  0  0  0  0
  -29.8920   -2.4298    0.0000 H   0  0  0  0  0  0  0  0  0  0  0  0
  -30.3512    2.0392    0.0000 H   0  0  0  0  0  0  0  0  0  0  0  0
  -33.0368    3.3761    0.0000 H   0  0  0  0  0  0  0  0  0  0  0  0
  -32.3074   -2.5456    0.0000 H   0  0  0  0  0  0  0  0  0  0  0  0
  -39.1373   -4.7058    0.0000 H   0  0  0  0  0  0  0  0  0  0  0  0
  -40.5289    0.3005    0.0000 H   0  0  0  0  0  0  0  0  0  0  0  0
  -37.6385    1.1040    0.0000 H   0  0  0  0  0  0  0  0  0  0  0  0
  -42.3488   -1.5536    0.0000 H   0  0  0  0  0  0  0  0  0  0  0  0
  -32.6071   -0.1939    0.0000 H   0  0  0  0  0  0  0  0  0  0  0  0
  -30.4279   -2.4745    0.0000 H   0  0  0  0  0  0  0  0  0  0  0  0
  -34.1058   -6.0037    0.0000 H   0  0  0  0  0  0  0  0  0  0  0  0
  -31.5901   -6.6527    0.0000 H   0  0  0  0  0  0  0  0  0  0  0  0
  -27.4806   -2.2921    0.0000 H   0  0  0  0  0  0  0  0  0  0  0  0
  -25.4313    1.2401    0.0000 H   0  0  0  0  0  0  0  0  0  0  0  0
  -27.3560    1.1212    0.0000 H   0  0  0  0  0  0  0  0  0  0  0  0
  -23.9468   -1.7222    0.0000 H   0  0  0  0  0  0  0  0  0  0  0  0
  -25.8715   -1.8411    0.0000 H   0  0  0  0  0  0  0  0  0  0  0  0
  -22.2944   -1.9717    0.0000 H   0  0  0  0  0  0  0  0  0  0  0  0
  -22.1697    1.4415    0.0000 H   0  0  0  0  0  0  0  0  0  0  0  0
  -19.8199    2.9989    0.0000 H   0  0  0  0  0  0  0  0  0  0  0  0
  -21.5878    2.2289    0.0000 H   0  0  0  0  0  0  0  0  0  0  0  0
  -17.4118    0.7231    0.0000 H   0  0  0  0  0  0  0  0  0  0  0  0
  -18.4545   -0.0781    0.0000 H   0  0  0  0  0  0  0  0  0  0  0  0
  -17.5705    5.1794    0.0000 H   0  0  0  0  0  0  0  0  0  0  0  0
  -18.2709    1.9893    0.0000 H   0  0  0  0  0  0  0  0  0  0  0  0
  -18.2325   -1.2429    0.0000 H   0  0  0  0  0  0  0  0  0  0  0  0
  -14.8246   -1.9101    0.0000 H   0  0  0  0  0  0  0  0  0  0  0  0
  -15.0105   -0.2869    0.0000 H   0  0  0  0  0  0  0  0  0  0  0  0
  -17.4840   -3.8864    0.0000 H   0  0  0  0  0  0  0  0  0  0  0  0
  -18.0068   -2.1803    0.0000 H   0  0  0  0  0  0  0  0  0  0  0  0
  -14.2165   -4.4360    0.0000 H   0  0  0  0  0  0  0  0  0  0  0  0
  -14.5274   -2.6789    0.0000 H   0  0  0  0  0  0  0  0  0  0  0  0
  -17.4428   -5.5571    0.0000 H   0  0  0  0  0  0  0  0  0  0  0  0
  -14.3433   -8.8194    0.0000 H   0  0  0  0  0  0  0  0  0  0  0  0
  -12.4598   -7.0298    0.0000 H   0  0  0  0  0  0  0  0  0  0  0  0
  -13.0678   -4.5039    0.0000 H   0  0  0  0  0  0  0  0  0  0  0  0
  -14.3332   -1.4687    0.0000 H   0  0  0  0  0  0  0  0  0  0  0  0
  -14.3903    1.9221    0.0000 H   0  0  0  0  0  0  0  0  0  0  0  0
  -12.2190    3.5206    0.0000 H   0  0  0  0  0  0  0  0  0  0  0  0
  -13.8084    2.7095    0.0000 H   0  0  0  0  0  0  0  0  0  0  0  0
  -10.6751    0.4024    0.0000 H   0  0  0  0  0  0  0  0  0  0  0  0
   -8.5966    3.2752    0.0000 H   0  0  0  0  0  0  0  0  0  0  0  0
   -9.6585    4.5169    0.0000 H   0  0  0  0  0  0  0  0  0  0  0  0
  -11.3350    3.9056    0.0000 H   0  0  0  0  0  0  0  0  0  0  0  0
   -9.1804   -0.2267    0.0000 H   0  0  0  0  0  0  0  0  0  0  0  0
   -8.1804    1.5802    0.0000 H   0  0  0  0  0  0  0  0  0  0  0  0
   -9.0350    2.5795    0.0000 H   0  0  0  0  0  0  0  0  0  0  0  0
  -10.4915    2.4699    0.0000 H   0  0  0  0  0  0  0  0  0  0  0  0
  -10.4531   -0.7623    0.0000 H   0  0  0  0  0  0  0  0  0  0  0  0
   -7.0452   -1.4296    0.0000 H   0  0  0  0  0  0  0  0  0  0  0  0
   -7.1233    0.0455    0.0000 H   0  0  0  0  0  0  0  0  0  0  0  0
   -9.7046   -3.4059    0.0000 H   0  0  0  0  0  0  0  0  0  0  0  0
  -10.2274   -1.6997    0.0000 H   0  0  0  0  0  0  0  0  0  0  0  0
   -6.4371   -3.9555    0.0000 H   0  0  0  0  0  0  0  0  0  0  0  0
   -6.7480   -2.1983    0.0000 H   0  0  0  0  0  0  0  0  0  0  0  0
   -9.6634   -5.0765    0.0000 H   0  0  0  0  0  0  0  0  0  0  0  0
   -6.5639   -8.3388    0.0000 H   0  0  0  0  0  0  0  0  0  0  0  0
   -4.6804   -6.5493    0.0000 H   0  0  0  0  0  0  0  0  0  0  0  0
   -5.2884   -4.0234    0.0000 H   0  0  0  0  0  0  0  0  0  0  0  0
   -6.5538   -0.9882    0.0000 H   0  0  0  0  0  0  0  0  0  0  0  0
   -6.6109    2.4026    0.0000 H   0  0  0  0  0  0  0  0  0  0  0  0
   -4.4396    4.0011    0.0000 H   0  0  0  0  0  0  0  0  0  0  0  0
   -6.0290    3.1900    0.0000 H   0  0  0  0  0  0  0  0  0  0  0  0
   -1.8530    1.6842    0.0000 H   0  0  0  0  0  0  0  0  0  0  0  0
   -2.8957    0.8830    0.0000 H   0  0  0  0  0  0  0  0  0  0  0  0
   -1.8791    4.9975    0.0000 H   0  0  0  0  0  0  0  0  0  0  0  0
   -3.5556    4.3861    0.0000 H   0  0  0  0  0  0  0  0  0  0  0  0
    0.1001    2.2006    0.0000 H   0  0  0  0  0  0  0  0  0  0  0  0
    2.4597    5.6338    0.0000 H   0  0  0  0  0  0  0  0  0  0  0  0
    0.3702    7.1779    0.0000 H   0  0  0  0  0  0  0  0  0  0  0  0
   -2.0117    6.1405    0.0000 H   0  0  0  0  0  0  0  0  0  0  0  0
   -2.7121    2.9504    0.0000 H   0  0  0  0  0  0  0  0  0  0  0  0
   -2.6737   -0.2817    0.0000 H   0  0  0  0  0  0  0  0  0  0  0  0
    0.7342   -0.9490    0.0000 H   0  0  0  0  0  0  0  0  0  0  0  0
    0.5483    0.6742    0.0000 H   0  0  0  0  0  0  0  0  0  0  0  0
   -1.9252   -2.9253    0.0000 H   0  0  0  0  0  0  0  0  0  0  0  0
   -2.4480   -1.2192    0.0000 H   0  0  0  0  0  0  0  0  0  0  0  0
    1.3423   -3.4749    0.0000 H   0  0  0  0  0  0  0  0  0  0  0  0
    1.0314   -1.7178    0.0000 H   0  0  0  0  0  0  0  0  0  0  0  0
   -1.8840   -4.5960    0.0000 H   0  0  0  0  0  0  0  0  0  0  0  0
    1.2155   -7.8583    0.0000 H   0  0  0  0  0  0  0  0  0  0  0  0
    3.0990   -6.0687    0.0000 H   0  0  0  0  0  0  0  0  0  0  0  0
    2.4910   -3.5428    0.0000 H   0  0  0  0  0  0  0  0  0  0  0  0
    1.2256   -0.5076    0.0000 H   0  0  0  0  0  0  0  0  0  0  0  0
    1.1685    2.8832    0.0000 H   0  0  0  0  0  0  0  0  0  0  0  0
    1.6789    3.5019    0.0000 H   0  0  0  0  0  0  0  0  0  0  0  0
    5.4975    4.0397    0.0000 H   0  0  0  0  0  0  0  0  0  0  0  0
    6.0928    2.5126    0.0000 H   0  0  0  0  0  0  0  0  0  0  0  0
    4.7686    1.3467    0.0000 H   0  0  0  0  0  0  0  0  0  0  0  0
    3.4258    5.9377    0.0000 H   0  0  0  0  0  0  0  0  0  0  0  0
    2.0596    4.7899    0.0000 H   0  0  0  0  0  0  0  0  0  0  0  0
    5.0819    6.3084    0.0000 H   0  0  0  0  0  0  0  0  0  0  0  0
    6.4637    4.9884    0.0000 H   0  0  0  0  0  0  0  0  0  0  0  0
    5.0692    3.2945    0.0000 H   0  0  0  0  0  0  0  0  0  0  0  0
    4.5205    3.4307    0.0000 H   0  0  0  0  0  0  0  0  0  0  0  0
    5.0261   -0.1009    0.0000 H   0  0  0  0  0  0  0  0  0  0  0  0
    5.6947   -1.4109    0.0000 H   0  0  0  0  0  0  0  0  0  0  0  0
    5.9297   -1.9899    0.0000 H   0  0  0  0  0  0  0  0  0  0  0  0
    6.7248   -2.8082    0.0000 H   0  0  0  0  0  0  0  0  0  0  0  0
    7.1859   -3.2055    0.0000 H   0  0  0  0  0  0  0  0  0  0  0  0
    8.4762   -3.9113    0.0000 H   0  0  0  0  0  0  0  0  0  0  0  0
    9.4438   -4.4608    0.0000 H   0  0  0  0  0  0  0  0  0  0  0  0
    4.8125   -1.1779    0.0000 H   0  0  0  0  0  0  0  0  0  0  0  0
    3.6480   -0.3109    0.0000 H   0  0  0  0  0  0  0  0  0  0  0  0
    3.8689    1.3457    0.0000 H   0  0  0  0  0  0  0  0  0  0  0  0
    5.5745    5.2036    0.0000 H   0  0  0  0  0  0  0  0  0  0  0  0
    6.1162    5.7247    0.0000 H   0  0  0  0  0  0  0  0  0  0  0  0
    6.4707    8.1455    0.0000 H   0  0  0  0  0  0  0  0  0  0  0  0
    5.7829    6.6634    0.0000 H   0  0  0  0  0  0  0  0  0  0  0  0
   10.4683    6.0728    0.0000 H   0  0  0  0  0  0  0  0  0  0  0  0
   12.4176    8.3237    0.0000 H   0  0  0  0  0  0  0  0  0  0  0  0
   11.7193   10.8979    0.0000 H   0  0  0  0  0  0  0  0  0  0  0  0
    8.8644   11.8197    0.0000 H   0  0  0  0  0  0  0  0  0  0  0  0
    6.6387    9.8081    0.0000 H   0  0  0  0  0  0  0  0  0  0  0  0
    9.9282    8.2667    0.0000 H   0  0  0  0  0  0  0  0  0  0  0  0
   11.3833    8.3129    0.0000 H   0  0  0  0  0  0  0  0  0  0  0  0
   13.9457    8.7735    0.0000 H   0  0  0  0  0  0  0  0  0  0  0  0
   13.8795    7.1410    0.0000 H   0  0  0  0  0  0  0  0  0  0  0  0
   13.0765   10.5720    0.0000 H   0  0  0  0  0  0  0  0  0  0  0  0
   15.4025    6.7961    0.0000 H   0  0  0  0  0  0  0  0  0  0  0  0
   15.8654    5.9485    0.0000 H   0  0  0  0  0  0  0  0  0  0  0  0
   18.2283    3.8041    0.0000 H   0  0  0  0  0  0  0  0  0  0  0  0
   16.9860    3.0050    0.0000 H   0  0  0  0  0  0  0  0  0  0  0  0
   17.9476    7.2653    0.0000 H   0  0  0  0  0  0  0  0  0  0  0  0
   16.3404    6.4901    0.0000 H   0  0  0  0  0  0  0  0  0  0  0  0
   20.5704    5.2405    0.0000 H   0  0  0  0  0  0  0  0  0  0  0  0
   19.0696    4.2752    0.0000 H   0  0  0  0  0  0  0  0  0  0  0  0
   19.2018    8.3699    0.0000 H   0  0  0  0  0  0  0  0  0  0  0  0
   23.7014    8.3109    0.0000 H   0  0  0  0  0  0  0  0  0  0  0  0
   23.6673    5.7130    0.0000 H   0  0  0  0  0  0  0  0  0  0  0  0
   21.4005    4.4436    0.0000 H   0  0  0  0  0  0  0  0  0  0  0  0
   17.6659    1.5993    0.0000 H   0  0  0  0  0  0  0  0  0  0  0  0
   15.7151   -2.5465    0.0000 H   0  0  0  0  0  0  0  0  0  0  0  0
   16.6151   -1.5969    0.0000 H   0  0  0  0  0  0  0  0  0  0  0  0
   14.3983   -3.6778    0.0000 H   0  0  0  0  0  0  0  0  0  0  0  0
   15.3565   -3.0581    0.0000 H   0  0  0  0  0  0  0  0  0  0  0  0
   12.4445   -4.3610    0.0000 H   0  0  0  0  0  0  0  0  0  0  0  0
   13.8600   -3.9618    0.0000 H   0  0  0  0  0  0  0  0  0  0  0  0
   11.3785   -4.6800    0.0000 H   0  0  0  0  0  0  0  0  0  0  0  0
   18.6111   -0.2714    0.0000 H   0  0  0  0  0  0  0  0  0  0  0  0
   18.4855    1.5086    0.0000 H   0  0  0  0  0  0  0  0  0  0  0  0
   17.0971    2.0130    0.0000 H   0  0  0  0  0  0  0  0  0  0  0  0
   19.0243    0.5115    0.0000 H   0  0  0  0  0  0  0  0  0  0  0  0
   17.8861   -2.6831    0.0000 H   0  0  0  0  0  0  0  0  0  0  0  0
   20.4403   -4.6993    0.0000 H   0  0  0  0  0  0  0  0  0  0  0  0
   21.1284   -3.0528    0.0000 H   0  0  0  0  0  0  0  0  0  0  0  0
   20.3403   -6.6052    0.0000 H   0  0  0  0  0  0  0  0  0  0  0  0
   17.5091   -8.2281    0.0000 H   0  0  0  0  0  0  0  0  0  0  0  0
   15.0908   -6.0369    0.0000 H   0  0  0  0  0  0  0  0  0  0  0  0
   21.2259   -4.4115    0.0000 H   0  0  0  0  0  0  0  0  0  0  0  0
   22.6456   -1.3317    0.0000 H   0  0  0  0  0  0  0  0  0  0  0  0
   25.4384   -0.9481    0.0000 H   0  0  0  0  0  0  0  0  0  0  0  0
   23.5115   -0.8748    0.0000 H   0  0  0  0  0  0  0  0  0  0  0  0
   27.4608   -0.8467    0.0000 H   0  0  0  0  0  0  0  0  0  0  0  0
   29.5506   -3.3531    0.0000 H   0  0  0  0  0  0  0  0  0  0  0  0
   27.9782   -6.0368    0.0000 H   0  0  0  0  0  0  0  0  0  0  0  0
   26.3960   -2.5298    0.0000 H   0  0  0  0  0  0  0  0  0  0  0  0
   25.1036   -5.6255    0.0000 H   0  0  0  0  0  0  0  0  0  0  0  0
   27.6578   -7.6417    0.0000 H   0  0  0  0  0  0  0  0  0  0  0  0
   28.3787   -6.1755    0.0000 H   0  0  0  0  0  0  0  0  0  0  0  0
   26.3412   -8.8931    0.0000 H   0  0  0  0  0  0  0  0  0  0  0  0
   28.4434   -7.3539    0.0000 H   0  0  0  0  0  0  0  0  0  0  0  0
   29.8631   -4.2741    0.0000 H   0  0  0  0  0  0  0  0  0  0  0  0
   30.7290   -3.8172    0.0000 H   0  0  0  0  0  0  0  0  0  0  0  0
   34.1498   -4.0259    0.0000 H   0  0  0  0  0  0  0  0  0  0  0  0
   34.3204   -5.2678    0.0000 H   0  0  0  0  0  0  0  0  0  0  0  0
   33.8381   -6.9858    0.0000 H   0  0  0  0  0  0  0  0  0  0  0  0
   32.3765   -7.1997    0.0000 H   0  0  0  0  0  0  0  0  0  0  0  0
   31.5955   -9.4610    0.0000 H   0  0  0  0  0  0  0  0  0  0  0  0
  1  2  1  0
  2  3  1  0
  3  4  2  0
  4  5  1  0
  5  6  2  0
  6  7  1  0
  7  8  2  0
  7  9  1  0
  9 10  1  0
 10 11  1  0
 11 12  2  0
  9 13  1  0
 13 14  1  0
 14 15  2  0
 15 16  1  0
 16 17  2  0
 17 18  1  0
 16 19  1  0
 14 20  1  0
 20 21  1  0
 21 22  2  0
 22 23  1  0
 23 24  2  0
 24 25  1  0
 25 26  2  0
 25 27  1  0
  1 28  2  0
  1 29  1  0
 29 30  1  0
 30 31  1  0
 31 32  1  0
 32 33  2  0
 32 34  1  0
 34 35  1  0
 35 36  1  0
 36 37  1  0
 37 38  1  0
 38 39  2  0
 38 40  1  0
 35 41  1  0
 41 42  2  0
 41 43  1  0
 43 44  1  0
 44 45  1  0
 45 46  1  0
 46 47  1  0
 47 48  1  0
 48 49  1  0
 49 50  2  3
 49 51  1  0
 44 52  1  0
 52 53  2  0
 52 54  1  0
 54 55  1  0
 55 56  1  0
 56 57  1  0
 57 58  1  0
 57 59  1  0
 55 60  1  0
 60 61  2  0
 60 62  1  0
 62 63  1  0
 63 64  1  0
 64 65  1  0
 65 66  1  0
 66 67  1  0
 67 68  1  0
 68 69  2  3
 68 70  1  0
 63 71  1  0
 71 72  2  0
 71 73  1  0
 73 74  1  0
 74 75  1  0
 75 76  1  0
 76 77  1  0
 77 78  1  0
 78 79  1  0
 79 80  2  3
 79 81  1  0
 74 82  1  0
 82 83  2  0
 82 84  1  0
 84 85  1  0
 85 86  1  0
 86 87  1  0
 87 88  1  0
 88 89  1  0
 89 90  1  0
 90 91  2  3
 90 92  1  0
 85 93  1  0
 93 94  2  0
 93 95  1  0
 95 96  1  0
 96 97  1  0
 97 98  1  0
 97 99  1  0
 99100  1  0
 96101  1  0
101102  2  0
101103  1  0
104103  1  6
104105  1  0
105106  1  0
106107  1  0
107108  1  0
104109  1  0
104110  1  0
110111  2  0
110112  1  0
112113  1  0
113114  1  0
114115  1  0
115116  2  0
116117  1  0
117118  2  0
118119  1  0
119120  2  0
113121  1  0
121122  2  0
121123  1  0
123124  1  0
124125  1  0
125126  1  0
124127  1  0
127128  2  0
127129  1  0
129130  1  0
130131  1  0
131132  1  0
132133  1  0
133134  1  0
134135  1  0
135136  2  3
135137  1  0
130138  1  0
138139  2  0
138140  1  0
140141  1  0
141142  1  0
142143  1  0
143144  1  0
144145  1  0
141146  1  0
141147  1  6
147148  2  0
147149  1  0
149150  1  0
150151  1  0
151152  1  0
152153  2  0
153154  1  0
154155  1  0
155156  2  0
150157  1  0
157158  2  0
157159  1  0
159160  1  0
160161  1  0
161162  1  0
162163  2  0
163164  1  0
164165  1  0
165166  2  0
160167  1  0
167168  2  0
167169  1  0
169170  1  0
170171  1  0
171172  1  0
170173  1  0
173174  2  0
173175  1  0
175176  1  0
176177  1  0
177178  1  0
177179  1  0
176180  1  0
180181  2  0
180182  1  0
  8  3  1  0
120115  1  0
156152  1  0
166162  1  0
 11  6  1  0
108145  2  0
 18 13  2  0
 22  9  1  0
 26 21  1  0
  2183  1  0
  4184  1  0
  5185  1  0
  8186  1  0
 15187  1  0
 17188  1  0
 18189  1  0
 19190  1  0
 23191  1  0
 24192  1  0
 26193  1  0
 27194  1  0
 29195  1  0
 30196  1  0
 30197  1  0
 31198  1  0
 31199  1  0
 34200  1  0
 35201  1  1
 36202  1  0
 36203  1  0
 37204  1  0
 37205  1  0
 40206  1  0
 43207  1  0
 44208  1  6
 45209  1  0
 45210  1  0
 46211  1  0
 46212  1  0
 47213  1  0
 47214  1  0
 48215  1  0
 50216  1  0
 51217  1  0
 51218  1  0
 54219  1  0
 55220  1  1
 56221  1  0
 56222  1  0
 57223  1  0
 58224  1  0
 58225  1  0
 58226  1  0
 59227  1  0
 59228  1  0
 59229  1  0
 62230  1  0
 63231  1  6
 64232  1  0
 64233  1  0
 65234  1  0
 65235  1  0
 66236  1  0
 66237  1  0
 67238  1  0
 69239  1  0
 70240  1  0
 70241  1  0
 73242  1  0
 74243  1  1
 75244  1  0
 75245  1  0
 76246  1  0
 76247  1  0
 77248  1  0
 77249  1  0
 78250  1  0
 80251  1  0
 81252  1  0
 81253  1  0
 84254  1  0
 85255  1  6
 86256  1  0
 86257  1  0
 87258  1  0
 87259  1  0
 88260  1  0
 88261  1  0
 89262  1  0
 91263  1  0
 92264  1  0
 92265  1  0
 95266  1  0
 96267  1  1
 97268  1  1
 98269  1  0
 98270  1  0
 98271  1  0
 99272  1  0
 99273  1  0
100274  1  0
100275  1  0
100276  1  0
103277  1  0
105278  1  0
105279  1  0
106280  1  0
106281  1  0
107282  1  0
107283  1  0
108284  1  0
109285  1  0
109286  1  0
109287  1  0
112288  1  0
113289  1  1
114290  1  0
114291  1  0
116292  1  0
117293  1  0
118294  1  0
119295  1  0
120296  1  0
123297  1  0
124298  1  1
125299  1  0
125300  1  0
126301  1  0
129302  1  0
130303  1  1
131304  1  0
131305  1  0
132306  1  0
132307  1  0
133308  1  0
133309  1  0
134310  1  0
136311  1  0
137312  1  0
137313  1  0
140314  1  0
142315  1  0
142316  1  0
143317  1  0
143318  1  0
144319  1  0
144320  1  0
145321  1  0
146322  1  0
146323  1  0
146324  1  0
149325  1  0
150326  1  6
151327  1  0
151328  1  0
153329  1  0
154330  1  0
155331  1  0
159332  1  0
160333  1  1
161334  1  0
161335  1  0
163336  1  0
164337  1  0
165338  1  0
169339  1  0
170340  1  6
171341  1  0
171342  1  0
172343  1  0
175344  1  0
176345  1  1
177346  1  1
178347  1  0
179348  1  0
179349  1  0
179350  1  0
182351  1  0
M  END
