
     RDKit          2D

337346  0  0  0  0  0  0  0  0999 V2000
  -28.4455   -0.8553    0.0000 C   0  0  0  0  0  0  0  0  0  0  0  0
  -29.0450   -2.2304    0.0000 N   0  0  0  0  0  0  0  0  0  0  0  0
  -30.5355   -2.3987    0.0000 C   0  0  0  0  0  0  0  0  0  0  0  0
  -31.4266   -1.1921    0.0000 C   0  0  0  0  0  0  0  0  0  0  0  0
  -32.9171   -1.3605    0.0000 C   0  0  0  0  0  0  0  0  0  0  0  0
  -33.5165   -2.7355    0.0000 C   0  0  0  0  0  0  0  0  0  0  0  0
  -32.6254   -3.9421    0.0000 C   0  0  0  0  0  0  0  0  0  0  0  0
  -31.1349   -3.7738    0.0000 C   0  0  0  0  0  0  0  0  0  0  0  0
  -33.4976   -5.1625    0.0000 C   0  0  0  0  0  0  0  0  0  0  0  0
  -34.9278   -4.7101    0.0000 O   0  0  0  0  0  0  0  0  0  0  0  0
  -34.9394   -3.2101    0.0000 C   0  0  0  0  0  0  0  0  0  0  0  0
  -36.1598   -2.3379    0.0000 O   0  0  0  0  0  0  0  0  0  0  0  0
  -34.4926   -6.2850    0.0000 C   0  0  0  0  0  0  0  0  0  0  0  0
  -34.0180   -7.7079    0.0000 C   0  0  0  0  0  0  0  0  0  0  0  0
  -35.0130   -8.8304    0.0000 C   0  0  0  0  0  0  0  0  0  0  0  0
  -36.4826   -8.5300    0.0000 C   0  0  0  0  0  0  0  0  0  0  0  0
  -36.9572   -7.1070    0.0000 C   0  0  0  0  0  0  0  0  0  0  0  0
  -35.9622   -5.9845    0.0000 C   0  0  0  0  0  0  0  0  0  0  0  0
  -37.4776   -9.6524    0.0000 O   0  0  0  0  0  0  0  0  0  0  0  0
  -32.5484   -8.0084    0.0000 O   0  0  0  0  0  0  0  0  0  0  0  0
  -31.5534   -6.8859    0.0000 C   0  0  0  0  0  0  0  0  0  0  0  0
  -32.0280   -5.4629    0.0000 C   0  0  0  0  0  0  0  0  0  0  0  0
  -30.8116   -5.0045    0.0000 C   0  0  0  0  0  0  0  0  0  0  0  0
  -30.0278   -5.1647    0.0000 C   0  0  0  0  0  0  0  0  0  0  0  0
  -29.7746   -5.9236    0.0000 C   0  0  0  0  0  0  0  0  0  0  0  0
  -30.3053   -6.5223    0.0000 C   0  0  0  0  0  0  0  0  0  0  0  0
  -27.6192   -6.3643    0.0000 O   0  0  0  0  0  0  0  0  0  0  0  0
  -29.3366    0.3513    0.0000 S   0  0  0  0  0  0  0  0  0  0  0  0
  -26.9550   -0.6869    0.0000 N   0  0  0  0  0  0  0  0  0  0  0  0
  -26.3556    0.6881    0.0000 C   0  0  0  0  0  0  0  0  0  0  0  0
  -24.8651    0.8565    0.0000 C   0  0  0  0  0  0  0  0  0  0  0  0
  -24.2656    2.2315    0.0000 O   0  0  0  0  0  0  0  0  0  0  0  0
  -22.7751    2.3999    0.0000 C   0  0  0  0  0  0  0  0  0  0  0  0
  -22.1757    3.7749    0.0000 C   0  0  0  0  0  0  0  0  0  0  0  0
  -20.6852    3.9433    0.0000 O   0  0  0  0  0  0  0  0  0  0  0  0
  -20.0857    5.3183    0.0000 C   0  0  0  0  0  0  0  0  0  0  0  0
  -18.5952    5.4867    0.0000 C   0  0  0  0  0  0  0  0  0  0  0  0
  -17.8578    4.1804    0.0000 O   0  0  0  0  0  0  0  0  0  0  0  0
  -17.9958    6.8617    0.0000 N   0  0  0  0  0  0  0  0  0  0  0  0
  -16.5053    7.0301    0.0000 C   0  0  0  0  0  0  0  0  0  0  0  0
  -15.0470    6.6785    0.0000 C   0  0  0  0  0  0  0  0  0  0  0  0
  -14.6224    5.2399    0.0000 C   0  0  0  0  0  0  0  0  0  0  0  0
  -15.5366    4.0507    0.0000 C   0  0  0  0  0  0  0  0  0  0  0  0
  -14.6882    2.8138    0.0000 N   0  0  0  0  0  0  0  0  0  0  0  0
  -13.2496    3.2384    0.0000 C   0  0  0  0  0  0  0  0  0  0  0  0
  -11.9714    2.4534    0.0000 C   0  0  0  0  0  0  0  0  0  0  0  0
  -10.6525    3.1679    0.0000 C   0  0  0  0  0  0  0  0  0  0  0  0
  -10.6118    4.6674    0.0000 C   0  0  0  0  0  0  0  0  0  0  0  0
  -11.8900    5.4523    0.0000 C   0  0  0  0  0  0  0  0  0  0  0  0
  -13.2089    4.7379    0.0000 C   0  0  0  0  0  0  0  0  0  0  0  0
  -15.9058    8.4051    0.0000 C   0  0  0  0  0  0  0  0  0  0  0  0
  -16.7969    9.6118    0.0000 O   0  0  0  0  0  0  0  0  0  0  0  0
  -14.4153    8.5735    0.0000 N   0  0  0  0  0  0  0  0  0  0  0  0
  -13.6754    9.8783    0.0000 C   0  0  0  0  0  0  0  0  0  0  0  0
  -12.2058    9.5779    0.0000 C   0  0  0  0  0  0  0  0  0  0  0  0
  -12.0374    8.0874    0.0000 C   0  0  0  0  0  0  0  0  0  0  0  0
  -13.4030    7.4666    0.0000 C   0  0  0  0  0  0  0  0  0  0  0  0
  -12.6429    6.1735    0.0000 C   0  0  0  0  0  0  0  0  0  0  0  0
  -12.8566    5.4055    0.0000 O   0  0  0  0  0  0  0  0  0  0  0  0
  -11.1429    6.1851    0.0000 N   0  0  0  0  0  0  0  0  0  0  0  0
  -10.3829    4.8920    0.0000 C   0  0  0  0  0  0  0  0  0  0  0  0
  -10.1109    3.4168    0.0000 C   0  0  0  0  0  0  0  0  0  0  0  0
   -8.6974    2.9148    0.0000 C   0  0  0  0  0  0  0  0  0  0  0  0
   -8.4255    1.4396    0.0000 C   0  0  0  0  0  0  0  0  0  0  0  0
   -7.1755    0.6105    0.0000 O   0  0  0  0  0  0  0  0  0  0  0  0
   -9.7685    0.7717    0.0000 O   0  0  0  0  0  0  0  0  0  0  0  0
   -8.8829    4.9036    0.0000 C   0  0  0  0  0  0  0  0  0  0  0  0
   -8.3076    6.2889    0.0000 O   0  0  0  0  0  0  0  0  0  0  0  0
   -8.1228    3.6105    0.0000 N   0  0  0  0  0  0  0  0  0  0  0  0
   -6.6229    3.6221    0.0000 C   0  0  0  0  0  0  0  0  0  0  0  0
   -5.6391    4.7545    0.0000 C   0  0  0  0  0  0  0  0  0  0  0  0
   -4.3653    5.5466    0.0000 C   0  0  0  0  0  0  0  0  0  0  0  0
   -2.9146    5.9280    0.0000 C   0  0  0  0  0  0  0  0  0  0  0  0
   -1.4159    5.8649    0.0000 C   0  0  0  0  0  0  0  0  0  0  0  0
   -7.4118    4.8979    0.0000 C   0  0  0  0  0  0  0  0  0  0  0  0
   -7.2291    2.2501    0.0000 C   0  0  0  0  0  0  0  0  0  0  0  0
   -8.6922    1.9194    0.0000 O   0  0  0  0  0  0  0  0  0  0  0  0
   -7.4041    0.7603    0.0000 N   0  0  0  0  0  0  0  0  0  0  0  0
   -7.1321   -0.7148    0.0000 C   0  0  0  0  0  0  0  0  0  0  0  0
   -8.0582   -1.8948    0.0000 C   0  0  0  0  0  0  0  0  0  0  0  0
   -9.5062   -1.5033    0.0000 C   0  0  0  0  0  0  0  0  0  0  0  0
   -8.5249   -3.3204    0.0000 C   0  0  0  0  0  0  0  0  0  0  0  0
   -9.9928   -3.6290    0.0000 C   0  0  0  0  0  0  0  0  0  0  0  0
   -6.4375   -2.0443    0.0000 C   0  0  0  0  0  0  0  0  0  0  0  0
   -7.5316   -3.0703    0.0000 O   0  0  0  0  0  0  0  0  0  0  0  0
   -5.3818   -3.1099    0.0000 N   0  0  0  0  0  0  0  0  0  0  0  0
   -4.0589   -3.8170    0.0000 C   0  0  0  0  0  0  0  0  0  0  0  0
   -3.7138   -5.2767    0.0000 C   0  0  0  0  0  0  0  0  0  0  0  0
   -4.8054   -6.3055    0.0000 C   0  0  0  0  0  0  0  0  0  0  0  0
   -4.4602   -7.7653    0.0000 C   0  0  0  0  0  0  0  0  0  0  0  0
   -6.1830   -6.8989    0.0000 C   0  0  0  0  0  0  0  0  0  0  0  0
   -2.5864   -4.1028    0.0000 C   0  0  0  0  0  0  0  0  0  0  0  0
   -2.6495   -5.6014    0.0000 O   0  0  0  0  0  0  0  0  0  0  0  0
   -1.0951   -3.9418    0.0000 N   0  0  0  0  0  0  0  0  0  0  0  0
    0.2826   -3.3484    0.0000 C   0  0  0  0  0  0  0  0  0  0  0  0
    1.6391   -3.9887    0.0000 C   0  0  0  0  0  0  0  0  0  0  0  0
    1.7628   -5.4836    0.0000 C   0  0  0  0  0  0  0  0  0  0  0  0
    3.1193   -6.1239    0.0000 O   0  0  0  0  0  0  0  0  0  0  0  0
    0.5300   -6.3382    0.0000 O   0  0  0  0  0  0  0  0  0  0  0  0
    1.4241   -2.3753    0.0000 C   0  0  0  0  0  0  0  0  0  0  0  0
    2.5565   -3.3591    0.0000 O   0  0  0  0  0  0  0  0  0  0  0  0
    2.2281   -1.1090    0.0000 N   0  0  0  0  0  0  0  0  0  0  0  0
    2.6231    0.3380    0.0000 C   0  0  0  0  0  0  0  0  0  0  0  0
    2.5741    1.8372    0.0000 C   0  0  0  0  0  0  0  0  0  0  0  0
    2.0853    3.2554    0.0000 C   0  0  0  0  0  0  0  0  0  0  0  0
    1.2003    4.4664    0.0000 C   0  0  0  0  0  0  0  0  0  0  0  0
   -0.0024    5.3628    0.0000 C   0  0  0  0  0  0  0  0  0  0  0  0
    3.7797   -0.6172    0.0000 C   0  0  0  0  0  0  0  0  0  0  0  0
    3.9695    0.9993    0.0000 C   0  0  0  0  0  0  0  0  0  0  0  0
    4.4291    2.4272    0.0000 O   0  0  0  0  0  0  0  0  0  0  0  0
    5.2154    0.1640    0.0000 N   0  0  0  0  0  0  0  0  0  0  0  0
    6.5617    0.8253    0.0000 C   0  0  0  0  0  0  0  0  0  0  0  0
    7.6007    1.9073    0.0000 C   0  0  0  0  0  0  0  0  0  0  0  0
    9.0572    1.5484    0.0000 C   0  0  0  0  0  0  0  0  0  0  0  0
   10.2035    2.5158    0.0000 C   0  0  0  0  0  0  0  0  0  0  0  0
   11.4778    1.7245    0.0000 N   0  0  0  0  0  0  0  0  0  0  0  0
   11.1190    0.2680    0.0000 C   0  0  0  0  0  0  0  0  0  0  0  0
    9.6229    0.1592    0.0000 N   0  0  0  0  0  0  0  0  0  0  0  0
    7.8076   -0.0100    0.0000 C   0  0  0  0  0  0  0  0  0  0  0  0
    7.7072   -1.5066    0.0000 O   0  0  0  0  0  0  0  0  0  0  0  0
    9.1540    0.6513    0.0000 N   0  0  0  0  0  0  0  0  0  0  0  0
   10.3999   -0.1840    0.0000 C   0  0  0  0  0  0  0  0  0  0  0  0
   11.2849   -1.3950    0.0000 C   0  0  0  0  0  0  0  0  0  0  0  0
   10.6786   -2.7671    0.0000 C   0  0  0  0  0  0  0  0  0  0  0  0
   11.7462    0.4773    0.0000 C   0  0  0  0  0  0  0  0  0  0  0  0
   12.2058    1.9052    0.0000 O   0  0  0  0  0  0  0  0  0  0  0  0
   12.9921   -0.3580    0.0000 N   0  0  0  0  0  0  0  0  0  0  0  0
   14.3385    0.3033    0.0000 C   0  0  0  0  0  0  0  0  0  0  0  0
   15.3774    1.3852    0.0000 C   0  0  0  0  0  0  0  0  0  0  0  0
   16.8339    1.0264    0.0000 C   0  0  0  0  0  0  0  0  0  0  0  0
   17.8729    2.1083    0.0000 C   0  0  0  0  0  0  0  0  0  0  0  0
   19.3293    1.7495    0.0000 N   0  0  0  0  0  0  0  0  0  0  0  0
   20.3683    2.8314    0.0000 C   0  0  0  0  0  0  0  0  0  0  0  0
   21.7701    2.2977    0.0000 N   0  0  0  0  0  0  0  0  0  0  0  0
   19.9508    4.2722    0.0000 N   0  0  0  0  0  0  0  0  0  0  0  0
   15.5844   -0.5320    0.0000 C   0  0  0  0  0  0  0  0  0  0  0  0
   15.4839   -2.0286    0.0000 O   0  0  0  0  0  0  0  0  0  0  0  0
   16.9307    0.1293    0.0000 N   0  0  0  0  0  0  0  0  0  0  0  0
   18.1766   -0.7060    0.0000 C   0  0  0  0  0  0  0  0  0  0  0  0
   19.0617   -1.9170    0.0000 C   0  0  0  0  0  0  0  0  0  0  0  0
   18.4554   -3.2891    0.0000 C   0  0  0  0  0  0  0  0  0  0  0  0
   19.3404   -4.5001    0.0000 C   0  0  0  0  0  0  0  0  0  0  0  0
   18.7342   -5.8721    0.0000 N   0  0  0  0  0  0  0  0  0  0  0  0
   19.6192   -7.0832    0.0000 C   0  0  0  0  0  0  0  0  0  0  0  0
   19.0129   -8.4552    0.0000 N   0  0  0  0  0  0  0  0  0  0  0  0
   21.1106   -6.9222    0.0000 N   0  0  0  0  0  0  0  0  0  0  0  0
   19.5230   -0.0447    0.0000 C   0  0  0  0  0  0  0  0  0  0  0  0
   19.9826    1.3832    0.0000 O   0  0  0  0  0  0  0  0  0  0  0  0
   20.7688   -0.8800    0.0000 N   0  0  0  0  0  0  0  0  0  0  0  0
   22.1152   -0.2187    0.0000 C   0  0  0  0  0  0  0  0  0  0  0  0
   23.1542    0.8632    0.0000 C   0  0  0  0  0  0  0  0  0  0  0  0
   24.6435    0.6846    0.0000 C   0  0  0  0  0  0  0  0  0  0  0  0
   23.3611   -1.0540    0.0000 C   0  0  0  0  0  0  0  0  0  0  0  0
   23.2606   -2.5506    0.0000 O   0  0  0  0  0  0  0  0  0  0  0  0
   24.7074   -0.3927    0.0000 N   0  0  0  0  0  0  0  0  0  0  0  0
   25.9533   -1.2280    0.0000 C   0  0  0  0  0  0  0  0  0  0  0  0
   26.8384   -2.4391    0.0000 C   0  0  0  0  0  0  0  0  0  0  0  0
   26.2321   -3.8111    0.0000 C   0  0  0  0  0  0  0  0  0  0  0  0
   27.1172   -5.0221    0.0000 S   0  0  0  0  0  0  0  0  0  0  0  0
   26.5109   -6.3942    0.0000 C   0  0  0  0  0  0  0  0  0  0  0  0
   27.2997   -0.5667    0.0000 C   0  0  0  0  0  0  0  0  0  0  0  0
   27.4001    0.9299    0.0000 O   0  0  0  0  0  0  0  0  0  0  0  0
   28.5456   -1.4020    0.0000 N   0  0  0  0  0  0  0  0  0  0  0  0
   29.8919   -0.7407    0.0000 C   0  0  0  0  0  0  0  0  0  0  0  0
   30.9309    0.3412    0.0000 C   0  0  0  0  0  0  0  0  0  0  0  0
   32.3873   -0.0176    0.0000 C   0  0  0  0  0  0  0  0  0  0  0  0
   33.4263    1.0643    0.0000 C   0  0  0  0  0  0  0  0  0  0  0  0
   34.8828    0.7055    0.0000 N   0  0  0  0  0  0  0  0  0  0  0  0
   35.9217    1.7874    0.0000 C   0  0  0  0  0  0  0  0  0  0  0  0
   37.3782    1.4286    0.0000 N   0  0  0  0  0  0  0  0  0  0  0  0
   35.5043    3.2281    0.0000 N   0  0  0  0  0  0  0  0  0  0  0  0
   31.1378   -1.5760    0.0000 C   0  0  0  0  0  0  0  0  0  0  0  0
   32.5547   -1.0837    0.0000 O   0  0  0  0  0  0  0  0  0  0  0  0
   31.0374   -3.0726    0.0000 O   0  0  0  0  0  0  0  0  0  0  0  0
  -28.0134   -3.3194    0.0000 H   0  0  0  0  0  0  0  0  0  0  0  0
  -30.8271    0.1829    0.0000 H   0  0  0  0  0  0  0  0  0  0  0  0
  -33.8082   -0.1539    0.0000 H   0  0  0  0  0  0  0  0  0  0  0  0
  -29.9783   -4.7289    0.0000 H   0  0  0  0  0  0  0  0  0  0  0  0
  -34.5384  -10.2533    0.0000 H   0  0  0  0  0  0  0  0  0  0  0  0
  -38.4268   -6.8066    0.0000 H   0  0  0  0  0  0  0  0  0  0  0  0
  -36.4368   -4.5616    0.0000 H   0  0  0  0  0  0  0  0  0  0  0  0
  -38.9472   -9.3520    0.0000 H   0  0  0  0  0  0  0  0  0  0  0  0
  -31.5076   -2.9175    0.0000 H   0  0  0  0  0  0  0  0  0  0  0  0
  -28.4390   -3.6481    0.0000 H   0  0  0  0  0  0  0  0  0  0  0  0
  -29.6092   -8.6093    0.0000 H   0  0  0  0  0  0  0  0  0  0  0  0
  -27.1446   -7.7872    0.0000 H   0  0  0  0  0  0  0  0  0  0  0  0
  -26.0639   -1.8936    0.0000 H   0  0  0  0  0  0  0  0  0  0  0  0
  -26.2626    2.1852    0.0000 H   0  0  0  0  0  0  0  0  0  0  0  0
  -27.8138    1.0396    0.0000 H   0  0  0  0  0  0  0  0  0  0  0  0
  -23.4606    0.3298    0.0000 H   0  0  0  0  0  0  0  0  0  0  0  0
  -24.9580   -0.6406    0.0000 H   0  0  0  0  0  0  0  0  0  0  0  0
  -21.3169    2.0483    0.0000 H   0  0  0  0  0  0  0  0  0  0  0  0
  -22.6849    0.9026    0.0000 H   0  0  0  0  0  0  0  0  0  0  0  0
  -22.2659    5.2722    0.0000 H   0  0  0  0  0  0  0  0  0  0  0  0
  -23.6339    4.1264    0.0000 H   0  0  0  0  0  0  0  0  0  0  0  0
  -19.9927    6.8154    0.0000 H   0  0  0  0  0  0  0  0  0  0  0  0
  -21.4902    5.8450    0.0000 H   0  0  0  0  0  0  0  0  0  0  0  0
  -18.8869    8.0683    0.0000 H   0  0  0  0  0  0  0  0  0  0  0  0
  -16.5982    5.5330    0.0000 H   0  0  0  0  0  0  0  0  0  0  0  0
  -13.5601    6.4813    0.0000 H   0  0  0  0  0  0  0  0  0  0  0  0
  -14.5945    8.1087    0.0000 H   0  0  0  0  0  0  0  0  0  0  0  0
  -17.0299    3.9084    0.0000 H   0  0  0  0  0  0  0  0  0  0  0  0
  -15.1903    1.4003    0.0000 H   0  0  0  0  0  0  0  0  0  0  0  0
  -12.0121    0.9540    0.0000 H   0  0  0  0  0  0  0  0  0  0  0  0
   -9.6022    2.0970    0.0000 H   0  0  0  0  0  0  0  0  0  0  0  0
   -9.1592    5.0415    0.0000 H   0  0  0  0  0  0  0  0  0  0  0  0
  -11.6668    6.9356    0.0000 H   0  0  0  0  0  0  0  0  0  0  0  0
  -15.0504   10.4778    0.0000 H   0  0  0  0  0  0  0  0  0  0  0  0
  -13.2230   11.3085    0.0000 H   0  0  0  0  0  0  0  0  0  0  0  0
  -12.0606   11.0708    0.0000 H   0  0  0  0  0  0  0  0  0  0  0  0
  -10.7059    9.5896    0.0000 H   0  0  0  0  0  0  0  0  0  0  0  0
  -10.5727    8.4106    0.0000 H   0  0  0  0  0  0  0  0  0  0  0  0
  -11.0843    6.9291    0.0000 H   0  0  0  0  0  0  0  0  0  0  0  0
  -14.3581    6.3100    0.0000 H   0  0  0  0  0  0  0  0  0  0  0  0
  -10.4031    7.4900    0.0000 H   0  0  0  0  0  0  0  0  0  0  0  0
  -11.7884    4.3680    0.0000 H   0  0  0  0  0  0  0  0  0  0  0  0
  -10.3599    1.9376    0.0000 H   0  0  0  0  0  0  0  0  0  0  0  0
  -11.6109    3.4052    0.0000 H   0  0  0  0  0  0  0  0  0  0  0  0
   -7.2392    2.5631    0.0000 H   0  0  0  0  0  0  0  0  0  0  0  0
   -7.9348    4.2064    0.0000 H   0  0  0  0  0  0  0  0  0  0  0  0
   -8.5250    2.1654    0.0000 H   0  0  0  0  0  0  0  0  0  0  0  0
   -7.0126    5.3574    0.0000 H   0  0  0  0  0  0  0  0  0  0  0  0
   -5.8372    6.2413    0.0000 H   0  0  0  0  0  0  0  0  0  0  0  0
   -5.3720    6.6585    0.0000 H   0  0  0  0  0  0  0  0  0  0  0  0
   -4.2985    7.0451    0.0000 H   0  0  0  0  0  0  0  0  0  0  0  0
   -3.7098    7.1998    0.0000 H   0  0  0  0  0  0  0  0  0  0  0  0
   -2.2407    7.2681    0.0000 H   0  0  0  0  0  0  0  0  0  0  0  0
   -1.1302    7.3374    0.0000 H   0  0  0  0  0  0  0  0  0  0  0  0
   -6.7321    6.4189    0.0000 H   0  0  0  0  0  0  0  0  0  0  0  0
   -8.1590    6.1506    0.0000 H   0  0  0  0  0  0  0  0  0  0  0  0
   -8.6872    4.5650    0.0000 H   0  0  0  0  0  0  0  0  0  0  0  0
   -8.8861    0.5289    0.0000 H   0  0  0  0  0  0  0  0  0  0  0  0
   -8.5340   -0.1811    0.0000 H   0  0  0  0  0  0  0  0  0  0  0  0
   -6.9458   -2.9010    0.0000 H   0  0  0  0  0  0  0  0  0  0  0  0
  -10.6278   -2.7352    0.0000 H   0  0  0  0  0  0  0  0  0  0  0  0
  -10.8660   -0.9756    0.0000 H   0  0  0  0  0  0  0  0  0  0  0  0
   -9.4353   -0.1866    0.0000 H   0  0  0  0  0  0  0  0  0  0  0  0
   -8.4758   -4.8195    0.0000 H   0  0  0  0  0  0  0  0  0  0  0  0
   -7.0769   -3.7118    0.0000 H   0  0  0  0  0  0  0  0  0  0  0  0
  -10.4594   -5.0546    0.0000 H   0  0  0  0  0  0  0  0  0  0  0  0
  -11.4777   -3.4170    0.0000 H   0  0  0  0  0  0  0  0  0  0  0  0
  -10.4032   -2.1862    0.0000 H   0  0  0  0  0  0  0  0  0  0  0  0
   -6.2782   -4.3126    0.0000 H   0  0  0  0  0  0  0  0  0  0  0  0
   -5.3502   -4.5803    0.0000 H   0  0  0  0  0  0  0  0  0  0  0  0
   -2.7435   -6.4207    0.0000 H   0  0  0  0  0  0  0  0  0  0  0  0
   -2.2335   -5.0343    0.0000 H   0  0  0  0  0  0  0  0  0  0  0  0
   -5.7757   -5.1616    0.0000 H   0  0  0  0  0  0  0  0  0  0  0  0
   -5.4183   -8.9194    0.0000 H   0  0  0  0  0  0  0  0  0  0  0  0
   -3.6367   -9.0189    0.0000 H   0  0  0  0  0  0  0  0  0  0  0  0
   -3.0205   -7.3442    0.0000 H   0  0  0  0  0  0  0  0  0  0  0  0
   -6.5383   -8.3562    0.0000 H   0  0  0  0  0  0  0  0  0  0  0  0
   -7.6805   -6.9853    0.0000 H   0  0  0  0  0  0  0  0  0  0  0  0
   -6.5282   -5.4392    0.0000 H   0  0  0  0  0  0  0  0  0  0  0  0
   -0.7136   -5.3925    0.0000 H   0  0  0  0  0  0  0  0  0  0  0  0
    0.2569   -4.8482    0.0000 H   0  0  0  0  0  0  0  0  0  0  0  0
    3.1327   -4.1265    0.0000 H   0  0  0  0  0  0  0  0  0  0  0  0
    2.3725   -2.6803    0.0000 H   0  0  0  0  0  0  0  0  0  0  0  0
    3.6001   -1.7153    0.0000 H   0  0  0  0  0  0  0  0  0  0  0  0
    3.6657    2.8660    0.0000 H   0  0  0  0  0  0  0  0  0  0  0  0
    4.0580    1.6179    0.0000 H   0  0  0  0  0  0  0  0  0  0  0  0
    2.9787    4.4603    0.0000 H   0  0  0  0  0  0  0  0  0  0  0  0
    3.5679    3.4831    0.0000 H   0  0  0  0  0  0  0  0  0  0  0  0
    1.5227    5.9314    0.0000 H   0  0  0  0  0  0  0  0  0  0  0  0
    2.6196    4.9517    0.0000 H   0  0  0  0  0  0  0  0  0  0  0  0
    0.7047    6.6857    0.0000 H   0  0  0  0  0  0  0  0  0  0  0  0
    5.2702   -0.4489    0.0000 H   0  0  0  0  0  0  0  0  0  0  0  0
    4.3764   -1.9934    0.0000 H   0  0  0  0  0  0  0  0  0  0  0  0
    2.9075   -1.8376    0.0000 H   0  0  0  0  0  0  0  0  0  0  0  0
    5.2981   -1.3337    0.0000 H   0  0  0  0  0  0  0  0  0  0  0  0
    5.6767    2.0364    0.0000 H   0  0  0  0  0  0  0  0  0  0  0  0
    8.2070    3.2793    0.0000 H   0  0  0  0  0  0  0  0  0  0  0  0
    6.3548    2.7426    0.0000 H   0  0  0  0  0  0  0  0  0  0  0  0
   10.0947    4.0119    0.0000 H   0  0  0  0  0  0  0  0  0  0  0  0
   12.8670    2.2903    0.0000 H   0  0  0  0  0  0  0  0  0  0  0  0
   12.2189   -0.7519    0.0000 H   0  0  0  0  0  0  0  0  0  0  0  0
    9.6136    2.0792    0.0000 H   0  0  0  0  0  0  0  0  0  0  0  0
    9.2368   -1.1312    0.0000 H   0  0  0  0  0  0  0  0  0  0  0  0
   12.4197   -2.3760    0.0000 H   0  0  0  0  0  0  0  0  0  0  0  0
   12.6427   -0.7574    0.0000 H   0  0  0  0  0  0  0  0  0  0  0  0
   11.5637   -3.9781    0.0000 H   0  0  0  0  0  0  0  0  0  0  0  0
    9.6397   -3.8490    0.0000 H   0  0  0  0  0  0  0  0  0  0  0  0
    9.3402   -2.0898    0.0000 H   0  0  0  0  0  0  0  0  0  0  0  0
   13.0748   -1.8557    0.0000 H   0  0  0  0  0  0  0  0  0  0  0  0
   13.4534    1.5144    0.0000 H   0  0  0  0  0  0  0  0  0  0  0  0
   15.8120    2.8209    0.0000 H   0  0  0  0  0  0  0  0  0  0  0  0
   14.1315    2.2206    0.0000 H   0  0  0  0  0  0  0  0  0  0  0  0
   18.0798    0.1911    0.0000 H   0  0  0  0  0  0  0  0  0  0  0  0
   16.9429   -0.4696    0.0000 H   0  0  0  0  0  0  0  0  0  0  0  0
   18.4791    3.4803    0.0000 H   0  0  0  0  0  0  0  0  0  0  0  0
   16.7381    3.0893    0.0000 H   0  0  0  0  0  0  0  0  0  0  0  0
   20.0830    0.4526    0.0000 H   0  0  0  0  0  0  0  0  0  0  0  0
   22.8637    3.5545    0.0000 H   0  0  0  0  0  0  0  0  0  0  0  0
   22.0844    0.9838    0.0000 H   0  0  0  0  0  0  0  0  0  0  0  0
   20.9898    5.3541    0.0000 H   0  0  0  0  0  0  0  0  0  0  0  0
   18.4944    4.6310    0.0000 H   0  0  0  0  0  0  0  0  0  0  0  0
   17.3903    1.5572    0.0000 H   0  0  0  0  0  0  0  0  0  0  0  0
   17.0135   -1.6532    0.0000 H   0  0  0  0  0  0  0  0  0  0  0  0
   20.3075   -2.7524    0.0000 H   0  0  0  0  0  0  0  0  0  0  0  0
   20.3316   -1.1187    0.0000 H   0  0  0  0  0  0  0  0  0  0  0  0
   17.4164   -4.3710    0.0000 H   0  0  0  0  0  0  0  0  0  0  0  0
   17.1170   -2.6118    0.0000 H   0  0  0  0  0  0  0  0  0  0  0  0
   20.5863   -5.3354    0.0000 H   0  0  0  0  0  0  0  0  0  0  0  0
   20.5035   -3.5529    0.0000 H   0  0  0  0  0  0  0  0  0  0  0  0
   17.2428   -6.0331    0.0000 H   0  0  0  0  0  0  0  0  0  0  0  0
   19.8980   -9.6663    0.0000 H   0  0  0  0  0  0  0  0  0  0  0  0
   17.5216   -8.6162    0.0000 H   0  0  0  0  0  0  0  0  0  0  0  0
   21.9956   -8.1333    0.0000 H   0  0  0  0  0  0  0  0  0  0  0  0
   21.7168   -5.5502    0.0000 H   0  0  0  0  0  0  0  0  0  0  0  0
   20.8516   -2.3777    0.0000 H   0  0  0  0  0  0  0  0  0  0  0  0
   21.2301    0.9924    0.0000 H   0  0  0  0  0  0  0  0  0  0  0  0
   23.7604    2.2352    0.0000 H   0  0  0  0  0  0  0  0  0  0  0  0
   21.7432    1.3723    0.0000 H   0  0  0  0  0  0  0  0  0  0  0  0
   25.6496    1.5863    0.0000 H   0  0  0  0  0  0  0  0  0  0  0  0
   25.8565   -0.3309    0.0000 H   0  0  0  0  0  0  0  0  0  0  0  0
   24.7196   -0.9916    0.0000 H   0  0  0  0  0  0  0  0  0  0  0  0
   24.9896    1.0805    0.0000 H   0  0  0  0  0  0  0  0  0  0  0  0
   24.7902   -2.1752    0.0000 H   0  0  0  0  0  0  0  0  0  0  0  0
   27.9732   -3.4200    0.0000 H   0  0  0  0  0  0  0  0  0  0  0  0
   28.1083   -1.6407    0.0000 H   0  0  0  0  0  0  0  0  0  0  0  0
   25.0690   -4.7583    0.0000 H   0  0  0  0  0  0  0  0  0  0  0  0
   24.8937   -3.1339    0.0000 H   0  0  0  0  0  0  0  0  0  0  0  0
   27.3959   -7.6052    0.0000 H   0  0  0  0  0  0  0  0  0  0  0  0
   25.4719   -7.4761    0.0000 H   0  0  0  0  0  0  0  0  0  0  0  0
   25.1725   -5.7169    0.0000 H   0  0  0  0  0  0  0  0  0  0  0  0
   28.6283   -2.8997    0.0000 H   0  0  0  0  0  0  0  0  0  0  0  0
   29.0069    0.4704    0.0000 H   0  0  0  0  0  0  0  0  0  0  0  0
   31.3654    1.7769    0.0000 H   0  0  0  0  0  0  0  0  0  0  0  0
   29.6850    1.1765    0.0000 H   0  0  0  0  0  0  0  0  0  0  0  0
   33.6332   -0.8529    0.0000 H   0  0  0  0  0  0  0  0  0  0  0  0
   32.3131   -1.5158    0.0000 H   0  0  0  0  0  0  0  0  0  0  0  0
   34.0326    2.4363    0.0000 H   0  0  0  0  0  0  0  0  0  0  0  0
   32.2915    2.0453    0.0000 H   0  0  0  0  0  0  0  0  0  0  0  0
   35.3002   -0.7352    0.0000 H   0  0  0  0  0  0  0  0  0  0  0  0
   38.4172    2.5105    0.0000 H   0  0  0  0  0  0  0  0  0  0  0  0
   37.7957   -0.0122    0.0000 H   0  0  0  0  0  0  0  0  0  0  0  0
   36.5432    4.3100    0.0000 H   0  0  0  0  0  0  0  0  0  0  0  0
   34.0478    3.5870    0.0000 H   0  0  0  0  0  0  0  0  0  0  0  0
  1  2  1  0
  2  3  1  0
  3  4  2  0
  4  5  1  0
  5  6  2  0
  6  7  1  0
  7  8  2  0
  7  9  1  0
  9 10  1  0
 10 11  1  0
 11 12  2  0
  9 13  1  0
 13 14  1  0
 14 15  2  0
 15 16  1  0
 16 17  2  0
 17 18  1  0
 16 19  1  0
 14 20  1  0
 20 21  1  0
 21 22  2  0
 22 23  1  0
 23 24  2  0
 24 25  1  0
 25 26  2  0
 25 27  1  0
  1 28  2  0
  1 29  1  0
 29 30  1  0
 30 31  1  0
 31 32  1  0
 32 33  1  0
 33 34  1  0
 34 35  1  0
 35 36  1  0
 36 37  1  0
 37 38  2  0
 37 39  1  0
 39 40  1  0
 40 41  1  0
 41 42  1  0
 42 43  2  0
 43 44  1  0
 44 45  1  0
 45 46  2  0
 46 47  1  0
 47 48  2  0
 48 49  1  0
 49 50  2  0
 40 51  1  0
 51 52  2  0
 51 53  1  0
 53 54  1  0
 54 55  1  0
 55 56  1  0
 56 57  1  0
 57 58  1  0
 58 59  2  0
 58 60  1  0
 60 61  1  0
 61 62  1  0
 62 63  1  0
 63 64  1  0
 64 65  2  0
 64 66  1  0
 61 67  1  0
 67 68  2  0
 67 69  1  0
 70 69  1  1
 70 71  1  0
 71 72  1  0
 72 73  1  0
 73 74  1  0
 70 75  1  0
 70 76  1  0
 76 77  2  0
 76 78  1  0
 78 79  1  0
 79 80  1  0
 80 81  1  0
 80 82  1  0
 82 83  1  0
 79 84  1  0
 84 85  2  0
 84 86  1  0
 86 87  1  0
 87 88  1  0
 88 89  1  0
 89 90  1  0
 89 91  1  0
 87 92  1  0
 92 93  2  0
 92 94  1  0
 94 95  1  0
 95 96  1  0
 96 97  1  0
 97 98  2  0
 97 99  1  0
 95100  1  0
100101  2  0
100102  1  0
102103  1  0
103104  1  0
104105  1  0
105106  1  0
106107  1  0
103108  1  0
103109  1  1
109110  2  0
109111  1  0
111112  1  0
112113  1  0
113114  1  0
114115  2  0
115116  1  0
116117  1  0
117118  2  0
112119  1  0
119120  2  0
119121  1  0
121122  1  0
122123  1  0
123124  1  0
122125  1  0
125126  2  0
125127  1  0
127128  1  0
128129  1  0
129130  1  0
130131  1  0
131132  1  0
132133  1  0
133134  2  3
133135  1  0
128136  1  0
136137  2  0
136138  1  0
138139  1  0
139140  1  0
140141  1  0
141142  1  0
142143  1  0
143144  1  0
144145  2  3
144146  1  0
139147  1  0
147148  2  0
147149  1  0
149150  1  0
150151  1  0
151152  1  0
150153  1  0
153154  2  0
153155  1  0
155156  1  0
156157  1  0
157158  1  0
158159  1  0
159160  1  0
156161  1  0
161162  2  0
161163  1  0
163164  1  0
164165  1  0
165166  1  0
166167  1  0
167168  1  0
168169  1  0
169170  2  3
169171  1  0
164172  1  0
172173  2  0
172174  1  0
  8  3  1  0
 50 42  1  0
 57 53  1  0
118114  1  0
 11  6  1  0
 50 45  1  0
 74107  2  0
 18 13  2  0
 22  9  1  0
 26 21  1  0
  2175  1  0
  4176  1  0
  5177  1  0
  8178  1  0
 15179  1  0
 17180  1  0
 18181  1  0
 19182  1  0
 23183  1  0
 24184  1  0
 26185  1  0
 27186  1  0
 29187  1  0
 30188  1  0
 30189  1  0
 31190  1  0
 31191  1  0
 33192  1  0
 33193  1  0
 34194  1  0
 34195  1  0
 36196  1  0
 36197  1  0
 39198  1  0
 40199  1  6
 41200  1  0
 41201  1  0
 43202  1  0
 44203  1  0
 46204  1  0
 47205  1  0
 48206  1  0
 49207  1  0
 54208  1  0
 54209  1  0
 55210  1  0
 55211  1  0
 56212  1  0
 56213  1  0
 57214  1  0
 60215  1  0
 61216  1  6
 62217  1  0
 62218  1  0
 63219  1  0
 63220  1  0
 69221  1  0
 71222  1  0
 71223  1  0
 72224  1  0
 72225  1  0
 73226  1  0
 73227  1  0
 74228  1  0
 75229  1  0
 75230  1  0
 75231  1  0
 78232  1  0
 79233  1  6
 80234  1  1
 81235  1  0
 81236  1  0
 81237  1  0
 82238  1  0
 82239  1  0
 83240  1  0
 83241  1  0
 83242  1  0
 86243  1  0
 87244  1  6
 88245  1  0
 88246  1  0
 89247  1  0
 90248  1  0
 90249  1  0
 90250  1  0
 91251  1  0
 91252  1  0
 91253  1  0
 94254  1  0
 95255  1  6
 96256  1  0
 96257  1  0
102258  1  0
104259  1  0
104260  1  0
105261  1  0
105262  1  0
106263  1  0
106264  1  0
107265  1  0
108266  1  0
108267  1  0
108268  1  0
111269  1  0
112270  1  1
113271  1  0
113272  1  0
115273  1  0
116274  1  0
117275  1  0
121276  1  0
122277  1  6
123278  1  0
123279  1  0
124280  1  0
124281  1  0
124282  1  0
127283  1  0
128284  1  1
129285  1  0
129286  1  0
130287  1  0
130288  1  0
131289  1  0
131290  1  0
132291  1  0
134292  1  0
134293  1  0
135294  1  0
135295  1  0
138296  1  0
139297  1  6
140298  1  0
140299  1  0
141300  1  0
141301  1  0
142302  1  0
142303  1  0
143304  1  0
145305  1  0
145306  1  0
146307  1  0
146308  1  0
149309  1  0
150310  1  1
151311  1  0
151312  1  0
152313  1  0
152314  1  0
152315  1  0
155316  1  0
156317  1  6
157318  1  0
157319  1  0
158320  1  0
158321  1  0
160322  1  0
160323  1  0
160324  1  0
163325  1  0
164326  1  1
165327  1  0
165328  1  0
166329  1  0
166330  1  0
167331  1  0
167332  1  0
168333  1  0
170334  1  0
170335  1  0
171336  1  0
171337  1  0
M  CHG  6  66  -1  99  -1 134   1 145   1 170   1 174  -1
M  END
