
     RDKit          2D

204212  0  0  0  0  0  0  0  0999 V2000
  -13.3388    0.3989    0.0000 C   0  0  0  0  0  0  0  0  0  0  0  0
  -14.1436   -0.8669    0.0000 N   0  0  0  0  0  0  0  0  0  0  0  0
  -15.6423   -0.8027    0.0000 C   0  0  0  0  0  0  0  0  0  0  0  0
  -16.3360    0.5272    0.0000 C   0  0  0  0  0  0  0  0  0  0  0  0
  -17.8346    0.5913    0.0000 C   0  0  0  0  0  0  0  0  0  0  0  0
  -18.6395   -0.6744    0.0000 C   0  0  0  0  0  0  0  0  0  0  0  0
  -17.9457   -2.0044    0.0000 C   0  0  0  0  0  0  0  0  0  0  0  0
  -16.4471   -2.0685    0.0000 C   0  0  0  0  0  0  0  0  0  0  0  0
  -18.9962   -3.0751    0.0000 C   0  0  0  0  0  0  0  0  0  0  0  0
  -20.3392   -2.4070    0.0000 O   0  0  0  0  0  0  0  0  0  0  0  0
  -20.1187   -0.9233    0.0000 C   0  0  0  0  0  0  0  0  0  0  0  0
  -21.1895    0.1272    0.0000 O   0  0  0  0  0  0  0  0  0  0  0  0
  -20.1528   -4.0302    0.0000 C   0  0  0  0  0  0  0  0  0  0  0  0
  -19.9040   -5.5095    0.0000 C   0  0  0  0  0  0  0  0  0  0  0  0
  -21.0606   -6.4646    0.0000 C   0  0  0  0  0  0  0  0  0  0  0  0
  -22.4661   -5.9405    0.0000 C   0  0  0  0  0  0  0  0  0  0  0  0
  -22.7149   -4.4612    0.0000 C   0  0  0  0  0  0  0  0  0  0  0  0
  -21.5583   -3.5061    0.0000 C   0  0  0  0  0  0  0  0  0  0  0  0
  -23.6227   -6.8956    0.0000 O   0  0  0  0  0  0  0  0  0  0  0  0
  -18.4985   -6.0336    0.0000 O   0  0  0  0  0  0  0  0  0  0  0  0
  -17.3419   -5.0785    0.0000 C   0  0  0  0  0  0  0  0  0  0  0  0
  -17.5907   -3.5992    0.0000 C   0  0  0  0  0  0  0  0  0  0  0  0
  -16.3180   -3.3344    0.0000 C   0  0  0  0  0  0  0  0  0  0  0  0
  -15.5684   -3.6140    0.0000 C   0  0  0  0  0  0  0  0  0  0  0  0
  -15.4357   -4.4029    0.0000 C   0  0  0  0  0  0  0  0  0  0  0  0
  -16.0526   -4.9123    0.0000 C   0  0  0  0  0  0  0  0  0  0  0  0
  -13.3744   -5.1716    0.0000 O   0  0  0  0  0  0  0  0  0  0  0  0
  -14.0325    1.7288    0.0000 S   0  0  0  0  0  0  0  0  0  0  0  0
  -11.8401    0.3348    0.0000 N   0  0  0  0  0  0  0  0  0  0  0  0
  -11.0353    1.6005    0.0000 C   0  0  0  0  0  0  0  0  0  0  0  0
   -9.5366    1.5364    0.0000 C   0  0  0  0  0  0  0  0  0  0  0  0
   -8.7318    2.8022    0.0000 C   0  0  0  0  0  0  0  0  0  0  0  0
   -9.5825    4.0376    0.0000 O   0  0  0  0  0  0  0  0  0  0  0  0
   -7.2331    2.7380    0.0000 N   0  0  0  0  0  0  0  0  0  0  0  0
   -6.4283    4.0038    0.0000 C   0  0  0  0  0  0  0  0  0  0  0  0
   -7.8146    4.5766    0.0000 C   0  0  0  0  0  0  0  0  0  0  0  0
   -5.2390    4.9179    0.0000 C   0  0  0  0  0  0  0  0  0  0  0  0
   -5.5319    5.6594    0.0000 O   0  0  0  0  0  0  0  0  0  0  0  0
   -3.8527    4.3451    0.0000 N   0  0  0  0  0  0  0  0  0  0  0  0
   -2.6635    5.2593    0.0000 C   0  0  0  0  0  0  0  0  0  0  0  0
   -3.7703    6.2717    0.0000 C   0  0  0  0  0  0  0  0  0  0  0  0
   -5.2004    5.8194    0.0000 C   0  0  0  0  0  0  0  0  0  0  0  0
   -6.3072    6.8319    0.0000 S   0  0  0  0  0  0  0  0  0  0  0  0
   -7.7374    6.3796    0.0000 C   0  0  0  0  0  0  0  0  0  0  0  0
   -1.2333    5.7116    0.0000 C   0  0  0  0  0  0  0  0  0  0  0  0
   -1.0908    7.2048    0.0000 O   0  0  0  0  0  0  0  0  0  0  0  0
   -0.1265    4.6991    0.0000 N   0  0  0  0  0  0  0  0  0  0  0  0
    1.3037    5.1514    0.0000 C   0  0  0  0  0  0  0  0  0  0  0  0
    1.9952    6.4825    0.0000 C   0  0  0  0  0  0  0  0  0  0  0  0
    3.1434    7.4477    0.0000 C   0  0  0  0  0  0  0  0  0  0  0  0
    4.5736    7.9000    0.0000 C   0  0  0  0  0  0  0  0  0  0  0  0
    6.0680    7.7705    0.0000 C   0  0  0  0  0  0  0  0  0  0  0  0
    0.2058    6.1734    0.0000 C   0  0  0  0  0  0  0  0  0  0  0  0
    1.1742    3.6570    0.0000 C   0  0  0  0  0  0  0  0  0  0  0  0
   -0.2855    3.3119    0.0000 O   0  0  0  0  0  0  0  0  0  0  0  0
    1.6265    2.2268    0.0000 N   0  0  0  0  0  0  0  0  0  0  0  0
    2.5917    1.0786    0.0000 C   0  0  0  0  0  0  0  0  0  0  0  0
    1.1615    0.6263    0.0000 C   0  0  0  0  0  0  0  0  0  0  0  0
    0.8381   -0.8384    0.0000 C   0  0  0  0  0  0  0  0  0  0  0  0
   -0.5921   -1.2907    0.0000 C   0  0  0  0  0  0  0  0  0  0  0  0
   -0.9155   -2.7554    0.0000 C   0  0  0  0  0  0  0  0  0  0  0  0
    0.1913   -3.7679    0.0000 C   0  0  0  0  0  0  0  0  0  0  0  0
   -0.1321   -5.2326    0.0000 O   0  0  0  0  0  0  0  0  0  0  0  0
    1.6215   -3.3156    0.0000 C   0  0  0  0  0  0  0  0  0  0  0  0
    1.9449   -1.8509    0.0000 C   0  0  0  0  0  0  0  0  0  0  0  0
    3.9228    0.3871    0.0000 C   0  0  0  0  0  0  0  0  0  0  0  0
    3.6830   -1.0936    0.0000 O   0  0  0  0  0  0  0  0  0  0  0  0
    5.4172    0.2576    0.0000 N   0  0  0  0  0  0  0  0  0  0  0  0
    6.8988    1.3036    0.0000 C   0  0  0  0  0  0  0  0  0  0  0  0
    7.5850    2.6375    0.0000 C   0  0  0  0  0  0  0  0  0  0  0  0
    8.7819    3.5415    0.0000 C   0  0  0  0  0  0  0  0  0  0  0  0
    7.4655    4.2607    0.0000 C   0  0  0  0  0  0  0  0  0  0  0  0
    6.9194    5.6578    0.0000 N   0  0  0  0  0  0  0  0  0  0  0  0
    7.3991    7.0790    0.0000 C   0  0  0  0  0  0  0  0  0  0  0  0
    8.6801    7.8594    0.0000 C   0  0  0  0  0  0  0  0  0  0  0  0
   10.1631    7.6338    0.0000 C   0  0  0  0  0  0  0  0  0  0  0  0
   11.1540    6.5078    0.0000 C   0  0  0  0  0  0  0  0  0  0  0  0
   11.1894    5.0082    0.0000 C   0  0  0  0  0  0  0  0  0  0  0  0
   10.2526    3.8367    0.0000 C   0  0  0  0  0  0  0  0  0  0  0  0
    6.8594   -0.1959    0.0000 C   0  0  0  0  0  0  0  0  0  0  0  0
    5.5922   -0.9986    0.0000 O   0  0  0  0  0  0  0  0  0  0  0  0
    7.4744   -1.5640    0.0000 N   0  0  0  0  0  0  0  0  0  0  0  0
    8.6222   -2.5297    0.0000 C   0  0  0  0  0  0  0  0  0  0  0  0
    7.3039   -3.2453    0.0000 C   0  0  0  0  0  0  0  0  0  0  0  0
    7.2644   -4.7448    0.0000 C   0  0  0  0  0  0  0  0  0  0  0  0
    5.9461   -5.4604    0.0000 C   0  0  0  0  0  0  0  0  0  0  0  0
    5.9066   -6.9599    0.0000 C   0  0  0  0  0  0  0  0  0  0  0  0
    4.5883   -7.6754    0.0000 N   0  0  0  0  0  0  0  0  0  0  0  0
   10.0753   -2.9019    0.0000 C   0  0  0  0  0  0  0  0  0  0  0  0
   10.0358   -4.4013    0.0000 O   0  0  0  0  0  0  0  0  0  0  0  0
   11.5459   -2.6067    0.0000 N   0  0  0  0  0  0  0  0  0  0  0  0
   12.7429   -1.7026    0.0000 C   0  0  0  0  0  0  0  0  0  0  0  0
   13.4290   -0.3687    0.0000 C   0  0  0  0  0  0  0  0  0  0  0  0
   13.4685    1.1308    0.0000 C   0  0  0  0  0  0  0  0  0  0  0  0
   12.8534    2.4989    0.0000 C   0  0  0  0  0  0  0  0  0  0  0  0
   11.7057    3.4646    0.0000 C   0  0  0  0  0  0  0  0  0  0  0  0
   14.2056   -2.0348    0.0000 C   0  0  0  0  0  0  0  0  0  0  0  0
   13.1472   -3.1471    0.0000 C   0  0  0  0  0  0  0  0  0  0  0  0
   12.2369   -4.3393    0.0000 O   0  0  0  0  0  0  0  0  0  0  0  0
   14.6003   -3.5192    0.0000 N   0  0  0  0  0  0  0  0  0  0  0  0
   15.0046   -4.9637    0.0000 C   0  0  0  0  0  0  0  0  0  0  0  0
   14.8904   -6.4593    0.0000 C   0  0  0  0  0  0  0  0  0  0  0  0
   13.5381   -7.1083    0.0000 C   0  0  0  0  0  0  0  0  0  0  0  0
   13.4239   -8.6040    0.0000 C   0  0  0  0  0  0  0  0  0  0  0  0
   12.0453   -7.2556    0.0000 C   0  0  0  0  0  0  0  0  0  0  0  0
   16.4577   -5.3358    0.0000 C   0  0  0  0  0  0  0  0  0  0  0  0
   17.0350   -6.7203    0.0000 O   0  0  0  0  0  0  0  0  0  0  0  0
   17.5065   -4.2635    0.0000 O   0  0  0  0  0  0  0  0  0  0  0  0
  -13.2929   -2.1023    0.0000 H   0  0  0  0  0  0  0  0  0  0  0  0
  -15.5312    1.7930    0.0000 H   0  0  0  0  0  0  0  0  0  0  0  0
  -18.5284    1.9213    0.0000 H   0  0  0  0  0  0  0  0  0  0  0  0
  -15.4522   -3.1910    0.0000 H   0  0  0  0  0  0  0  0  0  0  0  0
  -20.8118   -7.9438    0.0000 H   0  0  0  0  0  0  0  0  0  0  0  0
  -24.1204   -3.9371    0.0000 H   0  0  0  0  0  0  0  0  0  0  0  0
  -21.8071   -2.0269    0.0000 H   0  0  0  0  0  0  0  0  0  0  0  0
  -25.0281   -6.3715    0.0000 H   0  0  0  0  0  0  0  0  0  0  0  0
  -16.6830   -1.1649    0.0000 H   0  0  0  0  0  0  0  0  0  0  0  0
  -13.7642   -2.3612    0.0000 H   0  0  0  0  0  0  0  0  0  0  0  0
  -15.6876   -7.0818    0.0000 H   0  0  0  0  0  0  0  0  0  0  0  0
  -13.1255   -6.6508    0.0000 H   0  0  0  0  0  0  0  0  0  0  0  0
  -11.1464   -0.9952    0.0000 H   0  0  0  0  0  0  0  0  0  0  0  0
  -12.4216    2.1734    0.0000 H   0  0  0  0  0  0  0  0  0  0  0  0
  -10.7119    3.0652    0.0000 H   0  0  0  0  0  0  0  0  0  0  0  0
   -9.8600    0.0717    0.0000 H   0  0  0  0  0  0  0  0  0  0  0  0
   -8.1503    0.9635    0.0000 H   0  0  0  0  0  0  0  0  0  0  0  0
   -6.5394    1.4081    0.0000 H   0  0  0  0  0  0  0  0  0  0  0  0
   -5.3215    2.9913    0.0000 H   0  0  0  0  0  0  0  0  0  0  0  0
   -9.1064    3.8142    0.0000 H   0  0  0  0  0  0  0  0  0  0  0  0
   -9.0365    5.4466    0.0000 H   0  0  0  0  0  0  0  0  0  0  0  0
   -6.8614    5.7349    0.0000 H   0  0  0  0  0  0  0  0  0  0  0  0
   -3.6557    2.8581    0.0000 H   0  0  0  0  0  0  0  0  0  0  0  0
   -1.9697    3.9293    0.0000 H   0  0  0  0  0  0  0  0  0  0  0  0
   -4.4640    7.6016    0.0000 H   0  0  0  0  0  0  0  0  0  0  0  0
   -2.5810    7.1859    0.0000 H   0  0  0  0  0  0  0  0  0  0  0  0
   -6.2694    4.7671    0.0000 H   0  0  0  0  0  0  0  0  0  0  0  0
   -4.8491    4.3612    0.0000 H   0  0  0  0  0  0  0  0  0  0  0  0
   -8.8442    7.3920    0.0000 H   0  0  0  0  0  0  0  0  0  0  0  0
   -9.0292    5.6172    0.0000 H   0  0  0  0  0  0  0  0  0  0  0  0
   -7.0437    5.0497    0.0000 H   0  0  0  0  0  0  0  0  0  0  0  0
   -0.6260    3.2847    0.0000 H   0  0  0  0  0  0  0  0  0  0  0  0
    1.5429    7.9127    0.0000 H   0  0  0  0  0  0  0  0  0  0  0  0
    0.5277    6.7932    0.0000 H   0  0  0  0  0  0  0  0  0  0  0  0
    3.0897    8.9467    0.0000 H   0  0  0  0  0  0  0  0  0  0  0  0
    1.9065    8.2963    0.0000 H   0  0  0  0  0  0  0  0  0  0  0  0
    5.2651    9.2311    0.0000 H   0  0  0  0  0  0  0  0  0  0  0  0
    3.7556    9.1573    0.0000 H   0  0  0  0  0  0  0  0  0  0  0  0
    6.4865    9.2109    0.0000 H   0  0  0  0  0  0  0  0  0  0  0  0
   -1.1313    6.3672    0.0000 H   0  0  0  0  0  0  0  0  0  0  0  0
    0.0143    7.7438    0.0000 H   0  0  0  0  0  0  0  0  0  0  0  0
    1.2273    7.5054    0.0000 H   0  0  0  0  0  0  0  0  0  0  0  0
    0.2338    1.6698    0.0000 H   0  0  0  0  0  0  0  0  0  0  0  0
    2.4622   -0.4158    0.0000 H   0  0  0  0  0  0  0  0  0  0  0  0
   -0.3371    0.6904    0.0000 H   0  0  0  0  0  0  0  0  0  0  0  0
    0.4445    1.9438    0.0000 H   0  0  0  0  0  0  0  0  0  0  0  0
   -1.6989   -0.2783    0.0000 H   0  0  0  0  0  0  0  0  0  0  0  0
   -2.3457   -3.2077    0.0000 H   0  0  0  0  0  0  0  0  0  0  0  0
    0.9747   -6.2450    0.0000 H   0  0  0  0  0  0  0  0  0  0  0  0
    2.7282   -4.3280    0.0000 H   0  0  0  0  0  0  0  0  0  0  0  0
    3.4195   -1.5763    0.0000 H   0  0  0  0  0  0  0  0  0  0  0  0
    5.3988   -1.2423    0.0000 H   0  0  0  0  0  0  0  0  0  0  0  0
    5.4457    1.6757    0.0000 H   0  0  0  0  0  0  0  0  0  0  0  0
    6.8432    3.9412    0.0000 H   0  0  0  0  0  0  0  0  0  0  0  0
    6.0853    2.6058    0.0000 H   0  0  0  0  0  0  0  0  0  0  0  0
    6.2271    3.4144    0.0000 H   0  0  0  0  0  0  0  0  0  0  0  0
    5.4199    5.6224    0.0000 H   0  0  0  0  0  0  0  0  0  0  0  0
    8.3849    9.3301    0.0000 H   0  0  0  0  0  0  0  0  0  0  0  0
   10.8822    8.9502    0.0000 H   0  0  0  0  0  0  0  0  0  0  0  0
   12.5511    7.0539    0.0000 H   0  0  0  0  0  0  0  0  0  0  0  0
   12.6585    4.7054    0.0000 H   0  0  0  0  0  0  0  0  0  0  0  0
    6.1762   -2.3154    0.0000 H   0  0  0  0  0  0  0  0  0  0  0  0
    8.9867   -3.9848    0.0000 H   0  0  0  0  0  0  0  0  0  0  0  0
    5.8044   -3.2844    0.0000 H   0  0  0  0  0  0  0  0  0  0  0  0
    6.3498   -2.0878    0.0000 H   0  0  0  0  0  0  0  0  0  0  0  0
    7.9100   -6.0987    0.0000 H   0  0  0  0  0  0  0  0  0  0  0  0
    8.7639   -4.7058    0.0000 H   0  0  0  0  0  0  0  0  0  0  0  0
    4.4625   -5.6819    0.0000 H   0  0  0  0  0  0  0  0  0  0  0  0
    5.3005   -4.1064    0.0000 H   0  0  0  0  0  0  0  0  0  0  0  0
    6.3824   -8.3824    0.0000 H   0  0  0  0  0  0  0  0  0  0  0  0
    7.4061   -6.9208    0.0000 H   0  0  0  0  0  0  0  0  0  0  0  0
    4.5489   -9.1749    0.0000 H   0  0  0  0  0  0  0  0  0  0  0  0
    3.3095   -6.8915    0.0000 H   0  0  0  0  0  0  0  0  0  0  0  0
   11.9896   -4.0395    0.0000 H   0  0  0  0  0  0  0  0  0  0  0  0
   14.5499   -1.3656    0.0000 H   0  0  0  0  0  0  0  0  0  0  0  0
   14.8393    0.1424    0.0000 H   0  0  0  0  0  0  0  0  0  0  0  0
   14.9108    0.7190    0.0000 H   0  0  0  0  0  0  0  0  0  0  0  0
   14.6402    2.0673    0.0000 H   0  0  0  0  0  0  0  0  0  0  0  0
   14.3316    2.7537    0.0000 H   0  0  0  0  0  0  0  0  0  0  0  0
   13.3331    3.9201    0.0000 H   0  0  0  0  0  0  0  0  0  0  0  0
   12.5493    4.7049    0.0000 H   0  0  0  0  0  0  0  0  0  0  0  0
   15.1184   -3.0308    0.0000 H   0  0  0  0  0  0  0  0  0  0  0  0
   15.6893   -1.4858    0.0000 H   0  0  0  0  0  0  0  0  0  0  0  0
   14.7315   -0.4406    0.0000 H   0  0  0  0  0  0  0  0  0  0  0  0
   15.6491   -2.4468    0.0000 H   0  0  0  0  0  0  0  0  0  0  0  0
   13.5050   -4.9279    0.0000 H   0  0  0  0  0  0  0  0  0  0  0  0
   15.4678   -7.8438    0.0000 H   0  0  0  0  0  0  0  0  0  0  0  0
   16.3900   -6.4951    0.0000 H   0  0  0  0  0  0  0  0  0  0  0  0
   12.9607   -5.7239    0.0000 H   0  0  0  0  0  0  0  0  0  0  0  0
   12.1608   -9.4130    0.0000 H   0  0  0  0  0  0  0  0  0  0  0  0
   13.8282  -10.0485    0.0000 H   0  0  0  0  0  0  0  0  0  0  0  0
   14.9235   -8.6397    0.0000 H   0  0  0  0  0  0  0  0  0  0  0  0
   11.2646   -8.5364    0.0000 H   0  0  0  0  0  0  0  0  0  0  0  0
   10.5922   -6.8835    0.0000 H   0  0  0  0  0  0  0  0  0  0  0  0
   12.1595   -5.7600    0.0000 H   0  0  0  0  0  0  0  0  0  0  0  0
   18.9596   -4.6356    0.0000 H   0  0  0  0  0  0  0  0  0  0  0  0
  1  2  1  0
  2  3  1  0
  3  4  2  0
  4  5  1  0
  5  6  2  0
  6  7  1  0
  7  8  2  0
  7  9  1  0
  9 10  1  0
 10 11  1  0
 11 12  2  0
  9 13  1  0
 13 14  1  0
 14 15  2  0
 15 16  1  0
 16 17  2  0
 17 18  1  0
 16 19  1  0
 14 20  1  0
 20 21  1  0
 21 22  2  0
 22 23  1  0
 23 24  2  0
 24 25  1  0
 25 26  2  0
 25 27  1  0
  1 28  2  0
  1 29  1  0
 29 30  1  0
 30 31  1  0
 31 32  1  0
 32 33  2  0
 32 34  1  0
 34 35  1  0
 35 36  1  0
 35 37  1  0
 37 38  2  0
 37 39  1  0
 39 40  1  0
 40 41  1  0
 41 42  1  0
 42 43  1  0
 43 44  1  0
 40 45  1  0
 45 46  2  0
 45 47  1  0
 48 47  1  1
 48 49  1  0
 49 50  1  0
 50 51  1  0
 51 52  1  0
 48 53  1  0
 48 54  1  0
 54 55  2  0
 54 56  1  0
 56 57  1  0
 57 58  1  0
 58 59  1  0
 59 60  2  0
 60 61  1  0
 61 62  2  0
 62 63  1  0
 62 64  1  0
 64 65  2  0
 57 66  1  0
 66 67  2  0
 66 68  1  0
 68 69  1  0
 69 70  1  0
 70 71  1  0
 71 72  2  0
 72 73  1  0
 73 74  1  0
 74 75  1  0
 75 76  2  0
 76 77  1  0
 77 78  2  0
 78 79  1  0
 69 80  1  0
 80 81  2  0
 80 82  1  0
 82 83  1  0
 83 84  1  0
 84 85  1  0
 85 86  1  0
 86 87  1  0
 87 88  1  0
 83 89  1  0
 89 90  2  0
 89 91  1  0
 91 92  1  0
 92 93  1  0
 93 94  1  0
 94 95  1  0
 95 96  1  0
 92 97  1  0
 92 98  1  1
 98 99  2  0
 98100  1  0
100101  1  0
101102  1  0
102103  1  0
103104  1  0
103105  1  0
101106  1  0
106107  2  0
106108  1  0
  8  3  1  0
 65 59  1  0
 79 71  1  0
 11  6  1  0
 52 74  2  0
 96 79  2  0
 18 13  2  0
 22  9  1  0
 26 21  1  0
  2109  1  0
  4110  1  0
  5111  1  0
  8112  1  0
 15113  1  0
 17114  1  0
 18115  1  0
 19116  1  0
 23117  1  0
 24118  1  0
 26119  1  0
 27120  1  0
 29121  1  0
 30122  1  0
 30123  1  0
 31124  1  0
 31125  1  0
 34126  1  0
 35127  1  1
 36128  1  0
 36129  1  0
 36130  1  0
 39131  1  0
 40132  1  1
 41133  1  0
 41134  1  0
 42135  1  0
 42136  1  0
 44137  1  0
 44138  1  0
 44139  1  0
 47140  1  0
 49141  1  0
 49142  1  0
 50143  1  0
 50144  1  0
 51145  1  0
 51146  1  0
 52147  1  0
 53148  1  0
 53149  1  0
 53150  1  0
 56151  1  0
 57152  1  6
 58153  1  0
 58154  1  0
 60155  1  0
 61156  1  0
 63157  1  0
 64158  1  0
 65159  1  0
 68160  1  0
 69161  1  1
 70162  1  0
 70163  1  0
 72164  1  0
 73165  1  0
 75166  1  0
 76167  1  0
 77168  1  0
 78169  1  0
 82170  1  0
 83171  1  6
 84172  1  0
 84173  1  0
 85174  1  0
 85175  1  0
 86176  1  0
 86177  1  0
 87178  1  0
 87179  1  0
 88180  1  0
 88181  1  0
 91182  1  0
 93183  1  0
 93184  1  0
 94185  1  0
 94186  1  0
 95187  1  0
 95188  1  0
 96189  1  0
 97190  1  0
 97191  1  0
 97192  1  0
100193  1  0
101194  1  6
102195  1  0
102196  1  0
103197  1  0
104198  1  0
104199  1  0
104200  1  0
105201  1  0
105202  1  0
105203  1  0
108204  1  0
M  END
