
     RDKit          2D

356359  0  0  0  0  0  0  0  0999 V2000
  -25.4211   -0.8204    0.0000 N   0  0  0  0  0  0  0  0  0  0  0  0
  -23.9533   -1.1297    0.0000 C   0  0  0  0  0  0  0  0  0  0  0  0
  -22.9516   -0.0132    0.0000 C   0  0  0  0  0  0  0  0  0  0  0  0
  -21.4838   -0.3225    0.0000 C   0  0  0  0  0  0  0  0  0  0  0  0
  -21.0178   -1.7483    0.0000 O   0  0  0  0  0  0  0  0  0  0  0  0
  -20.4821    0.7939    0.0000 N   0  0  0  0  0  0  0  0  0  0  0  0
  -19.0143    0.4846    0.0000 C   0  0  0  0  0  0  0  0  0  0  0  0
  -18.9646    1.9838    0.0000 C   0  0  0  0  0  0  0  0  0  0  0  0
  -20.2380    2.7765    0.0000 C   0  0  0  0  0  0  0  0  0  0  0  0
  -20.1883    4.2756    0.0000 C   0  0  0  0  0  0  0  0  0  0  0  0
  -21.4617    5.0683    0.0000 N   0  0  0  0  0  0  0  0  0  0  0  0
  -21.4120    6.5675    0.0000 C   0  0  0  0  0  0  0  0  0  0  0  0
  -22.6854    7.3601    0.0000 N   0  0  0  0  0  0  0  0  0  0  0  0
  -20.0888    7.2740    0.0000 N   0  0  0  0  0  0  0  0  0  0  0  0
  -17.7408   -0.3080    0.0000 C   0  0  0  0  0  0  0  0  0  0  0  0
  -16.4177    0.3985    0.0000 O   0  0  0  0  0  0  0  0  0  0  0  0
  -17.7906   -1.8072    0.0000 N   0  0  0  0  0  0  0  0  0  0  0  0
  -16.5171   -2.5999    0.0000 C   0  0  0  0  0  0  0  0  0  0  0  0
  -17.5189   -3.7163    0.0000 C   0  0  0  0  0  0  0  0  0  0  0  0
  -18.9867   -3.4070    0.0000 C   0  0  0  0  0  0  0  0  0  0  0  0
  -19.9884   -4.5235    0.0000 C   0  0  0  0  0  0  0  0  0  0  0  0
  -21.4562   -4.2142    0.0000 N   0  0  0  0  0  0  0  0  0  0  0  0
  -19.5224   -5.9493    0.0000 O   0  0  0  0  0  0  0  0  0  0  0  0
  -15.0494   -2.9092    0.0000 C   0  0  0  0  0  0  0  0  0  0  0  0
  -14.7606   -4.3811    0.0000 O   0  0  0  0  0  0  0  0  0  0  0  0
  -14.0476   -1.7927    0.0000 N   0  0  0  0  0  0  0  0  0  0  0  0
  -12.5799   -2.1020    0.0000 C   0  0  0  0  0  0  0  0  0  0  0  0
  -11.8406   -3.4072    0.0000 C   0  0  0  0  0  0  0  0  0  0  0  0
  -10.7494   -4.4365    0.0000 C   0  0  0  0  0  0  0  0  0  0  0  0
   -9.4034   -5.0984    0.0000 C   0  0  0  0  0  0  0  0  0  0  0  0
   -7.9220   -5.3342    0.0000 C   0  0  0  0  0  0  0  0  0  0  0  0
  -13.6064   -3.1957    0.0000 C   0  0  0  0  0  0  0  0  0  0  0  0
  -12.9016   -0.6370    0.0000 C   0  0  0  0  0  0  0  0  0  0  0  0
  -14.3993   -0.5535    0.0000 O   0  0  0  0  0  0  0  0  0  0  0  0
  -12.7772    0.8579    0.0000 N   0  0  0  0  0  0  0  0  0  0  0  0
  -12.2177    2.2496    0.0000 C   0  0  0  0  0  0  0  0  0  0  0  0
  -13.7164    2.1872    0.0000 C   0  0  0  0  0  0  0  0  0  0  0  0
  -14.5198    3.4539    0.0000 C   0  0  0  0  0  0  0  0  0  0  0  0
  -16.0185    3.3915    0.0000 C   0  0  0  0  0  0  0  0  0  0  0  0
  -16.8219    4.6582    0.0000 C   0  0  0  0  0  0  0  0  0  0  0  0
  -18.3018    4.4135    0.0000 N   0  0  0  0  0  0  0  0  0  0  0  0
  -11.2728    3.4146    0.0000 C   0  0  0  0  0  0  0  0  0  0  0  0
  -12.2840    4.5226    0.0000 O   0  0  0  0  0  0  0  0  0  0  0  0
  -10.0266    4.2494    0.0000 N   0  0  0  0  0  0  0  0  0  0  0  0
   -8.5896    4.6797    0.0000 C   0  0  0  0  0  0  0  0  0  0  0  0
   -9.5728    5.8125    0.0000 C   0  0  0  0  0  0  0  0  0  0  0  0
   -8.9142    7.1602    0.0000 C   0  0  0  0  0  0  0  0  0  0  0  0
  -10.8842    6.5407    0.0000 C   0  0  0  0  0  0  0  0  0  0  0  0
  -10.9093    8.0405    0.0000 C   0  0  0  0  0  0  0  0  0  0  0  0
   -7.0897    4.6674    0.0000 C   0  0  0  0  0  0  0  0  0  0  0  0
   -6.8539    6.1487    0.0000 O   0  0  0  0  0  0  0  0  0  0  0  0
   -5.6600    4.2134    0.0000 N   0  0  0  0  0  0  0  0  0  0  0  0
   -4.4276    3.3583    0.0000 C   0  0  0  0  0  0  0  0  0  0  0  0
   -4.1550    4.8333    0.0000 C   0  0  0  0  0  0  0  0  0  0  0  0
   -2.7413    5.3347    0.0000 C   0  0  0  0  0  0  0  0  0  0  0  0
   -1.5047    4.4857    0.0000 C   0  0  0  0  0  0  0  0  0  0  0  0
   -0.3151    5.3994    0.0000 N   0  0  0  0  0  0  0  0  0  0  0  0
   -0.8165    6.8131    0.0000 C   0  0  0  0  0  0  0  0  0  0  0  0
   -0.1014    8.1317    0.0000 C   0  0  0  0  0  0  0  0  0  0  0  0
   -0.8858    9.4103    0.0000 C   0  0  0  0  0  0  0  0  0  0  0  0
   -2.3853    9.3703    0.0000 C   0  0  0  0  0  0  0  0  0  0  0  0
   -3.1004    8.0517    0.0000 C   0  0  0  0  0  0  0  0  0  0  0  0
   -2.3160    6.7731    0.0000 C   0  0  0  0  0  0  0  0  0  0  0  0
   -3.5021    2.1779    0.0000 C   0  0  0  0  0  0  0  0  0  0  0  0
   -2.5486    3.3359    0.0000 O   0  0  0  0  0  0  0  0  0  0  0  0
   -2.9656    0.7771    0.0000 N   0  0  0  0  0  0  0  0  0  0  0  0
   -2.8658   -0.7196    0.0000 C   0  0  0  0  0  0  0  0  0  0  0  0
   -3.2116   -2.1792    0.0000 C   0  0  0  0  0  0  0  0  0  0  0  0
   -3.9723   -3.4720    0.0000 C   0  0  0  0  0  0  0  0  0  0  0  0
   -5.0802   -4.4832    0.0000 C   0  0  0  0  0  0  0  0  0  0  0  0
   -6.4370   -5.1228    0.0000 C   0  0  0  0  0  0  0  0  0  0  0  0
   -1.9259    0.5676    0.0000 C   0  0  0  0  0  0  0  0  0  0  0  0
   -1.4333    1.8427    0.0000 C   0  0  0  0  0  0  0  0  0  0  0  0
   -0.7084    3.0016    0.0000 C   0  0  0  0  0  0  0  0  0  0  0  0
    0.2228    4.0022    0.0000 C   0  0  0  0  0  0  0  0  0  0  0  0
   -2.1516   -2.1445    0.0000 C   0  0  0  0  0  0  0  0  0  0  0  0
   -4.3389   -2.3802    0.0000 O   0  0  0  0  0  0  0  0  0  0  0  0
   -1.8766   -3.4834    0.0000 N   0  0  0  0  0  0  0  0  0  0  0  0
   -1.3532   -4.7462    0.0000 C   0  0  0  0  0  0  0  0  0  0  0  0
   -2.7262   -6.3707    0.0000 C   0  0  0  0  0  0  0  0  0  0  0  0
   -1.9810   -7.6725    0.0000 C   0  0  0  0  0  0  0  0  0  0  0  0
   -2.7358   -8.9688    0.0000 C   0  0  0  0  0  0  0  0  0  0  0  0
   -2.1549  -10.3517    0.0000 N   0  0  0  0  0  0  0  0  0  0  0  0
   -4.2358   -8.9632    0.0000 O   0  0  0  0  0  0  0  0  0  0  0  0
   -0.6002   -5.8870    0.0000 C   0  0  0  0  0  0  0  0  0  0  0  0
   -1.5516   -6.9600    0.0000 O   0  0  0  0  0  0  0  0  0  0  0  0
    0.3550   -6.8648    0.0000 N   0  0  0  0  0  0  0  0  0  0  0  0
    1.4781   -7.6440    0.0000 C   0  0  0  0  0  0  0  0  0  0  0  0
    1.2013   -9.7530    0.0000 C   0  0  0  0  0  0  0  0  0  0  0  0
   -0.0636  -10.5593    0.0000 C   0  0  0  0  0  0  0  0  0  0  0  0
    0.0023  -12.0579    0.0000 N   0  0  0  0  0  0  0  0  0  0  0  0
   -1.2018  -10.1341    0.0000 O   0  0  0  0  0  0  0  0  0  0  0  0
    2.7283   -8.1967    0.0000 C   0  0  0  0  0  0  0  0  0  0  0  0
    2.2111  -10.3314    0.0000 O   0  0  0  0  0  0  0  0  0  0  0  0
    4.0605   -8.5028    0.0000 N   0  0  0  0  0  0  0  0  0  0  0  0
    5.4266   -8.5512    0.0000 C   0  0  0  0  0  0  0  0  0  0  0  0
    6.3339  -10.4750    0.0000 C   0  0  0  0  0  0  0  0  0  0  0  0
    5.7058  -11.8372    0.0000 C   0  0  0  0  0  0  0  0  0  0  0  0
    6.5713  -13.0622    0.0000 C   0  0  0  0  0  0  0  0  0  0  0  0
    5.9432  -14.4244    0.0000 N   0  0  0  0  0  0  0  0  0  0  0  0
    6.8087  -15.6495    0.0000 C   0  0  0  0  0  0  0  0  0  0  0  0
    6.1805  -17.0116    0.0000 N   0  0  0  0  0  0  0  0  0  0  0  0
    8.3024  -15.5124    0.0000 N   0  0  0  0  0  0  0  0  0  0  0  0
    6.7771   -8.3402    0.0000 C   0  0  0  0  0  0  0  0  0  0  0  0
    7.4961  -10.4157    0.0000 O   0  0  0  0  0  0  0  0  0  0  0  0
    8.0633   -7.8775    0.0000 N   0  0  0  0  0  0  0  0  0  0  0  0
    9.2387   -7.1797    0.0000 C   0  0  0  0  0  0  0  0  0  0  0  0
   11.0421   -8.3075    0.0000 C   0  0  0  0  0  0  0  0  0  0  0  0
   11.2501   -9.7930    0.0000 C   0  0  0  0  0  0  0  0  0  0  0  0
   12.6406  -10.3557    0.0000 C   0  0  0  0  0  0  0  0  0  0  0  0
   12.8486  -11.8412    0.0000 N   0  0  0  0  0  0  0  0  0  0  0  0
   14.2390  -12.4038    0.0000 C   0  0  0  0  0  0  0  0  0  0  0  0
   14.4470  -13.8894    0.0000 N   0  0  0  0  0  0  0  0  0  0  0  0
   15.4215  -11.4810    0.0000 N   0  0  0  0  0  0  0  0  0  0  0  0
   10.2608   -6.2720    0.0000 C   0  0  0  0  0  0  0  0  0  0  0  0
   11.9877   -7.6292    0.0000 O   0  0  0  0  0  0  0  0  0  0  0  0
   11.0926   -5.1873    0.0000 N   0  0  0  0  0  0  0  0  0  0  0  0
   11.7041   -3.9648    0.0000 C   0  0  0  0  0  0  0  0  0  0  0  0
   13.8311   -3.9387    0.0000 C   0  0  0  0  0  0  0  0  0  0  0  0
   14.8091   -5.0759    0.0000 C   0  0  0  0  0  0  0  0  0  0  0  0
   16.2831   -4.7975    0.0000 S   0  0  0  0  0  0  0  0  0  0  0  0
   17.2612   -5.9347    0.0000 C   0  0  0  0  0  0  0  0  0  0  0  0
   12.0733   -2.6487    0.0000 C   0  0  0  0  0  0  0  0  0  0  0  0
   14.2598   -2.8568    0.0000 O   0  0  0  0  0  0  0  0  0  0  0  0
   12.1866   -1.2865    0.0000 N   0  0  0  0  0  0  0  0  0  0  0  0
   12.0402    0.0726    0.0000 C   0  0  0  0  0  0  0  0  0  0  0  0
   13.8153    1.2445    0.0000 C   0  0  0  0  0  0  0  0  0  0  0  0
   15.2529    0.8166    0.0000 C   0  0  0  0  0  0  0  0  0  0  0  0
   16.3424    1.8477    0.0000 C   0  0  0  0  0  0  0  0  0  0  0  0
   17.7800    1.4197    0.0000 C   0  0  0  0  0  0  0  0  0  0  0  0
   18.8695    2.4508    0.0000 N   0  0  0  0  0  0  0  0  0  0  0  0
   11.6391    1.3793    0.0000 C   0  0  0  0  0  0  0  0  0  0  0  0
   13.5911    2.3864    0.0000 O   0  0  0  0  0  0  0  0  0  0  0  0
   10.9980    2.5866    0.0000 N   0  0  0  0  0  0  0  0  0  0  0  0
   10.1400    3.6507    0.0000 C   0  0  0  0  0  0  0  0  0  0  0  0
    9.0962    4.5332    0.0000 C   0  0  0  0  0  0  0  0  0  0  0  0
    7.9042    5.2022    0.0000 C   0  0  0  0  0  0  0  0  0  0  0  0
    6.6071    5.6335    0.0000 C   0  0  0  0  0  0  0  0  0  0  0  0
    5.2518    5.8116    0.0000 C   0  0  0  0  0  0  0  0  0  0  0  0
    3.8873    5.7299    0.0000 C   0  0  0  0  0  0  0  0  0  0  0  0
    2.5630    5.3915    0.0000 C   0  0  0  0  0  0  0  0  0  0  0  0
    1.3266    4.8086    0.0000 C   0  0  0  0  0  0  0  0  0  0  0  0
   12.1051    4.4649    0.0000 C   0  0  0  0  0  0  0  0  0  0  0  0
   10.9998    5.5963    0.0000 C   0  0  0  0  0  0  0  0  0  0  0  0
   10.2016    6.8663    0.0000 O   0  0  0  0  0  0  0  0  0  0  0  0
   12.4406    6.0135    0.0000 N   0  0  0  0  0  0  0  0  0  0  0  0
   12.7996    7.4699    0.0000 C   0  0  0  0  0  0  0  0  0  0  0  0
   12.6389    8.9613    0.0000 C   0  0  0  0  0  0  0  0  0  0  0  0
   13.8500    9.8462    0.0000 C   0  0  0  0  0  0  0  0  0  0  0  0
   13.6893   11.3376    0.0000 C   0  0  0  0  0  0  0  0  0  0  0  0
   14.9005   12.2224    0.0000 C   0  0  0  0  0  0  0  0  0  0  0  0
   14.7398   13.7138    0.0000 N   0  0  0  0  0  0  0  0  0  0  0  0
   14.2404    7.8872    0.0000 C   0  0  0  0  0  0  0  0  0  0  0  0
   15.3222    6.8481    0.0000 O   0  0  0  0  0  0  0  0  0  0  0  0
   14.5994    9.3436    0.0000 N   0  0  0  0  0  0  0  0  0  0  0  0
   16.0402    9.7609    0.0000 C   0  0  0  0  0  0  0  0  0  0  0  0
   17.5368    9.6602    0.0000 C   0  0  0  0  0  0  0  0  0  0  0  0
   18.1980    8.3138    0.0000 C   0  0  0  0  0  0  0  0  0  0  0  0
   19.6946    8.2131    0.0000 C   0  0  0  0  0  0  0  0  0  0  0  0
   20.3557    6.8666    0.0000 C   0  0  0  0  0  0  0  0  0  0  0  0
   21.8523    6.7660    0.0000 N   0  0  0  0  0  0  0  0  0  0  0  0
   16.3992   11.2173    0.0000 C   0  0  0  0  0  0  0  0  0  0  0  0
   17.7784   11.8071    0.0000 O   0  0  0  0  0  0  0  0  0  0  0  0
   15.7527   12.2460    0.0000 O   0  0  0  0  0  0  0  0  0  0  0  0
  -26.4229   -1.9368    0.0000 H   0  0  0  0  0  0  0  0  0  0  0  0
  -25.8871    0.6054    0.0000 H   0  0  0  0  0  0  0  0  0  0  0  0
  -24.5128   -2.5214    0.0000 H   0  0  0  0  0  0  0  0  0  0  0  0
  -22.6799   -1.9223    0.0000 H   0  0  0  0  0  0  0  0  0  0  0  0
  -24.2250    0.7795    0.0000 H   0  0  0  0  0  0  0  0  0  0  0  0
  -22.3921    1.3785    0.0000 H   0  0  0  0  0  0  0  0  0  0  0  0
  -20.8202    1.5158    0.0000 H   0  0  0  0  0  0  0  0  0  0  0  0
  -19.5738   -0.9071    0.0000 H   0  0  0  0  0  0  0  0  0  0  0  0
  -18.0849    3.1988    0.0000 H   0  0  0  0  0  0  0  0  0  0  0  0
  -17.4968    1.6745    0.0000 H   0  0  0  0  0  0  0  0  0  0  0  0
  -21.7058    3.0858    0.0000 H   0  0  0  0  0  0  0  0  0  0  0  0
  -20.8410    2.1277    0.0000 H   0  0  0  0  0  0  0  0  0  0  0  0
  -19.8026    5.7252    0.0000 H   0  0  0  0  0  0  0  0  0  0  0  0
  -18.7205    3.9663    0.0000 H   0  0  0  0  0  0  0  0  0  0  0  0
  -22.7849    4.3618    0.0000 H   0  0  0  0  0  0  0  0  0  0  0  0
  -22.6357    8.8593    0.0000 H   0  0  0  0  0  0  0  0  0  0  0  0
  -24.0086    6.6536    0.0000 H   0  0  0  0  0  0  0  0  0  0  0  0
  -20.0390    8.7732    0.0000 H   0  0  0  0  0  0  0  0  0  0  0  0
  -18.7282    6.6425    0.0000 H   0  0  0  0  0  0  0  0  0  0  0  0
  -19.1900   -2.3472    0.0000 H   0  0  0  0  0  0  0  0  0  0  0  0
  -15.9576   -1.2081    0.0000 H   0  0  0  0  0  0  0  0  0  0  0  0
  -18.0784   -5.1081    0.0000 H   0  0  0  0  0  0  0  0  0  0  0  0
  -16.2454   -4.5090    0.0000 H   0  0  0  0  0  0  0  0  0  0  0  0
  -20.2601   -2.6144    0.0000 H   0  0  0  0  0  0  0  0  0  0  0  0
  -18.9632   -1.9072    0.0000 H   0  0  0  0  0  0  0  0  0  0  0  0
  -22.4579   -5.3306    0.0000 H   0  0  0  0  0  0  0  0  0  0  0  0
  -21.9222   -2.7884    0.0000 H   0  0  0  0  0  0  0  0  0  0  0  0
  -14.6839   -0.4344    0.0000 H   0  0  0  0  0  0  0  0  0  0  0  0
  -12.3300   -4.8251    0.0000 H   0  0  0  0  0  0  0  0  0  0  0  0
  -13.3065   -3.7253    0.0000 H   0  0  0  0  0  0  0  0  0  0  0  0
  -10.9816   -5.9184    0.0000 H   0  0  0  0  0  0  0  0  0  0  0  0
  -12.0564   -5.1725    0.0000 H   0  0  0  0  0  0  0  0  0  0  0  0
   -9.0090   -6.5457    0.0000 H   0  0  0  0  0  0  0  0  0  0  0  0
  -10.4354   -6.1870    0.0000 H   0  0  0  0  0  0  0  0  0  0  0  0
   -7.9344   -6.8341    0.0000 H   0  0  0  0  0  0  0  0  0  0  0  0
  -14.9274   -3.4791    0.0000 H   0  0  0  0  0  0  0  0  0  0  0  0
  -13.6917   -4.7754    0.0000 H   0  0  0  0  0  0  0  0  0  0  0  0
  -12.4974   -4.4559    0.0000 H   0  0  0  0  0  0  0  0  0  0  0  0
  -14.2368    1.2037    0.0000 H   0  0  0  0  0  0  0  0  0  0  0  0
  -12.7226    3.6621    0.0000 H   0  0  0  0  0  0  0  0  0  0  0  0
  -15.0234    1.4511    0.0000 H   0  0  0  0  0  0  0  0  0  0  0  0
  -13.7587    0.6878    0.0000 H   0  0  0  0  0  0  0  0  0  0  0  0
  -14.6605    4.9473    0.0000 H   0  0  0  0  0  0  0  0  0  0  0  0
  -13.2128    4.1900    0.0000 H   0  0  0  0  0  0  0  0  0  0  0  0
  -17.3255    2.6554    0.0000 H   0  0  0  0  0  0  0  0  0  0  0  0
  -15.8778    1.8981    0.0000 H   0  0  0  0  0  0  0  0  0  0  0  0
  -17.1437    6.1233    0.0000 H   0  0  0  0  0  0  0  0  0  0  0  0
  -15.5149    5.3942    0.0000 H   0  0  0  0  0  0  0  0  0  0  0  0
  -18.7490    6.0183    0.0000 H   0  0  0  0  0  0  0  0  0  0  0  0
  -19.7600    4.3762    0.0000 H   0  0  0  0  0  0  0  0  0  0  0  0
  -17.9989    3.1306    0.0000 H   0  0  0  0  0  0  0  0  0  0  0  0
  -10.8268    5.5181    0.0000 H   0  0  0  0  0  0  0  0  0  0  0  0
   -7.8001    5.9551    0.0000 H   0  0  0  0  0  0  0  0  0  0  0  0
  -10.7715    4.9108    0.0000 H   0  0  0  0  0  0  0  0  0  0  0  0
   -9.9114    8.4947    0.0000 H   0  0  0  0  0  0  0  0  0  0  0  0
   -8.1386    8.3954    0.0000 H   0  0  0  0  0  0  0  0  0  0  0  0
   -7.6931    6.6675    0.0000 H   0  0  0  0  0  0  0  0  0  0  0  0
  -12.3656    6.7765    0.0000 H   0  0  0  0  0  0  0  0  0  0  0  0
  -11.5428    5.1930    0.0000 H   0  0  0  0  0  0  0  0  0  0  0  0
  -12.2207    8.7687    0.0000 H   0  0  0  0  0  0  0  0  0  0  0  0
  -10.4199    9.4584    0.0000 H   0  0  0  0  0  0  0  0  0  0  0  0
   -9.4149    8.1702    0.0000 H   0  0  0  0  0  0  0  0  0  0  0  0
   -4.9981    5.5595    0.0000 H   0  0  0  0  0  0  0  0  0  0  0  0
   -3.1010    4.0583    0.0000 H   0  0  0  0  0  0  0  0  0  0  0  0
   -4.4033    6.3126    0.0000 H   0  0  0  0  0  0  0  0  0  0  0  0
   -5.6074    5.2082    0.0000 H   0  0  0  0  0  0  0  0  0  0  0  0
   -0.9299    3.1002    0.0000 H   0  0  0  0  0  0  0  0  0  0  0  0
    1.1835    5.3348    0.0000 H   0  0  0  0  0  0  0  0  0  0  0  0
    1.3980    8.1717    0.0000 H   0  0  0  0  0  0  0  0  0  0  0  0
   -0.1707   10.7289    0.0000 H   0  0  0  0  0  0  0  0  0  0  0  0
   -3.1696   10.6489    0.0000 H   0  0  0  0  0  0  0  0  0  0  0  0
   -4.5998    8.0117    0.0000 H   0  0  0  0  0  0  0  0  0  0  0  0
   -1.5005    1.0988    0.0000 H   0  0  0  0  0  0  0  0  0  0  0  0
   -1.7390   -1.8941    0.0000 H   0  0  0  0  0  0  0  0  0  0  0  0
   -2.5018   -3.5006    0.0000 H   0  0  0  0  0  0  0  0  0  0  0  0
   -2.6381   -4.1574    0.0000 H   0  0  0  0  0  0  0  0  0  0  0  0
   -3.8651   -4.9682    0.0000 H   0  0  0  0  0  0  0  0  0  0  0  0
   -4.0073   -5.5314    0.0000 H   0  0  0  0  0  0  0  0  0  0  0  0
   -5.0552   -5.9830    0.0000 H   0  0  0  0  0  0  0  0  0  0  0  0
   -6.0067   -6.5598    0.0000 H   0  0  0  0  0  0  0  0  0  0  0  0
   -4.0407    0.3394    0.0000 H   0  0  0  0  0  0  0  0  0  0  0  0
   -3.4712    1.9776    0.0000 H   0  0  0  0  0  0  0  0  0  0  0  0
   -3.5030    2.5633    0.0000 H   0  0  0  0  0  0  0  0  0  0  0  0
   -2.6839    3.5197    0.0000 H   0  0  0  0  0  0  0  0  0  0  0  0
   -2.6042    4.1008    0.0000 H   0  0  0  0  0  0  0  0  0  0  0  0
   -1.4387    4.9173    0.0000 H   0  0  0  0  0  0  0  0  0  0  0  0
   -1.2380    5.6472    0.0000 H   0  0  0  0  0  0  0  0  0  0  0  0
   -3.7267   -4.6136    0.0000 H   0  0  0  0  0  0  0  0  0  0  0  0
   -3.4691   -5.1570    0.0000 H   0  0  0  0  0  0  0  0  0  0  0  0
   -3.8788   -7.3306    0.0000 H   0  0  0  0  0  0  0  0  0  0  0  0
   -4.1427   -5.8772    0.0000 H   0  0  0  0  0  0  0  0  0  0  0  0
   -1.1039   -8.8894    0.0000 H   0  0  0  0  0  0  0  0  0  0  0  0
   -0.6304   -7.0200    0.0000 H   0  0  0  0  0  0  0  0  0  0  0  0
   -2.7454  -11.5668    0.0000 H   0  0  0  0  0  0  0  0  0  0  0  0
   -0.5218  -10.6811    0.0000 H   0  0  0  0  0  0  0  0  0  0  0  0
   -0.9185   -8.6543    0.0000 H   0  0  0  0  0  0  0  0  0  0  0  0
   -0.0799   -9.1336    0.0000 H   0  0  0  0  0  0  0  0  0  0  0  0
    1.6025  -11.1984    0.0000 H   0  0  0  0  0  0  0  0  0  0  0  0
    2.7008   -9.7920    0.0000 H   0  0  0  0  0  0  0  0  0  0  0  0
   -1.2626  -12.8642    0.0000 H   0  0  0  0  0  0  0  0  0  0  0  0
    1.3330  -12.7501    0.0000 H   0  0  0  0  0  0  0  0  0  0  0  0
    3.5941  -10.6491    0.0000 H   0  0  0  0  0  0  0  0  0  0  0  0
    4.5995  -10.4727    0.0000 H   0  0  0  0  0  0  0  0  0  0  0  0
    7.5663  -11.3302    0.0000 H   0  0  0  0  0  0  0  0  0  0  0  0
    7.6164   -9.6971    0.0000 H   0  0  0  0  0  0  0  0  0  0  0  0
    4.6496  -12.9023    0.0000 H   0  0  0  0  0  0  0  0  0  0  0  0
    4.3031  -11.3056    0.0000 H   0  0  0  0  0  0  0  0  0  0  0  0
    7.8037  -13.9174    0.0000 H   0  0  0  0  0  0  0  0  0  0  0  0
    7.7494  -12.1338    0.0000 H   0  0  0  0  0  0  0  0  0  0  0  0
    4.4494  -14.5614    0.0000 H   0  0  0  0  0  0  0  0  0  0  0  0
    7.0461  -18.2367    0.0000 H   0  0  0  0  0  0  0  0  0  0  0  0
    4.6868  -17.1486    0.0000 H   0  0  0  0  0  0  0  0  0  0  0  0
    9.1680  -16.7375    0.0000 H   0  0  0  0  0  0  0  0  0  0  0  0
    8.9306  -14.1503    0.0000 H   0  0  0  0  0  0  0  0  0  0  0  0
    8.8313   -9.9353    0.0000 H   0  0  0  0  0  0  0  0  0  0  0  0
    9.5818   -9.2433    0.0000 H   0  0  0  0  0  0  0  0  0  0  0  0
   12.5412   -8.3607    0.0000 H   0  0  0  0  0  0  0  0  0  0  0  0
   11.7005   -6.9597    0.0000 H   0  0  0  0  0  0  0  0  0  0  0  0
   10.9375  -11.2601    0.0000 H   0  0  0  0  0  0  0  0  0  0  0  0
    9.7827  -10.1042    0.0000 H   0  0  0  0  0  0  0  0  0  0  0  0
   14.1396  -10.4088    0.0000 H   0  0  0  0  0  0  0  0  0  0  0  0
   13.1297   -8.9377    0.0000 H   0  0  0  0  0  0  0  0  0  0  0  0
   11.6661  -12.7641    0.0000 H   0  0  0  0  0  0  0  0  0  0  0  0
   15.8375  -14.4520    0.0000 H   0  0  0  0  0  0  0  0  0  0  0  0
   13.2645  -14.8122    0.0000 H   0  0  0  0  0  0  0  0  0  0  0  0
   16.8120  -12.0436    0.0000 H   0  0  0  0  0  0  0  0  0  0  0  0
   15.2136   -9.9955    0.0000 H   0  0  0  0  0  0  0  0  0  0  0  0
   12.8513   -6.5032    0.0000 H   0  0  0  0  0  0  0  0  0  0  0  0
   13.1085   -5.5153    0.0000 H   0  0  0  0  0  0  0  0  0  0  0  0
   15.2046   -3.3358    0.0000 H   0  0  0  0  0  0  0  0  0  0  0  0
   13.6562   -2.4489    0.0000 H   0  0  0  0  0  0  0  0  0  0  0  0
   15.1643   -6.5333    0.0000 H   0  0  0  0  0  0  0  0  0  0  0  0
   13.7430   -6.1310    0.0000 H   0  0  0  0  0  0  0  0  0  0  0  0
   18.7351   -5.6563    0.0000 H   0  0  0  0  0  0  0  0  0  0  0  0
   17.7913   -7.3379    0.0000 H   0  0  0  0  0  0  0  0  0  0  0  0
   16.0743   -6.8520    0.0000 H   0  0  0  0  0  0  0  0  0  0  0  0
   14.3775   -1.4427    0.0000 H   0  0  0  0  0  0  0  0  0  0  0  0
   14.0598   -0.4726    0.0000 H   0  0  0  0  0  0  0  0  0  0  0  0
   14.4863    2.5860    0.0000 H   0  0  0  0  0  0  0  0  0  0  0  0
   12.8627    2.4032    0.0000 H   0  0  0  0  0  0  0  0  0  0  0  0
   16.3396   -0.2174    0.0000 H   0  0  0  0  0  0  0  0  0  0  0  0
   14.9264   -0.6475    0.0000 H   0  0  0  0  0  0  0  0  0  0  0  0
   16.8449    3.2610    0.0000 H   0  0  0  0  0  0  0  0  0  0  0  0
   15.2557    2.8816    0.0000 H   0  0  0  0  0  0  0  0  0  0  0  0
   18.9846    0.5259    0.0000 H   0  0  0  0  0  0  0  0  0  0  0  0
   17.2775    0.0064    0.0000 H   0  0  0  0  0  0  0  0  0  0  0  0
   20.3071    2.0229    0.0000 H   0  0  0  0  0  0  0  0  0  0  0  0
   19.5405    3.7923    0.0000 H   0  0  0  0  0  0  0  0  0  0  0  0
   17.7828    3.4848    0.0000 H   0  0  0  0  0  0  0  0  0  0  0  0
   12.9256    3.6397    0.0000 H   0  0  0  0  0  0  0  0  0  0  0  0
    9.5722    6.6063    0.0000 H   0  0  0  0  0  0  0  0  0  0  0  0
   10.6864    6.0199    0.0000 H   0  0  0  0  0  0  0  0  0  0  0  0
    8.1618    7.3422    0.0000 H   0  0  0  0  0  0  0  0  0  0  0  0
    9.1843    6.9630    0.0000 H   0  0  0  0  0  0  0  0  0  0  0  0
    6.4551    7.7837    0.0000 H   0  0  0  0  0  0  0  0  0  0  0  0
    7.6823    7.5017    0.0000 H   0  0  0  0  0  0  0  0  0  0  0  0
    4.6957    7.8941    0.0000 H   0  0  0  0  0  0  0  0  0  0  0  0
    5.9540    7.8495    0.0000 H   0  0  0  0  0  0  0  0  0  0  0  0
    2.9471    7.6696    0.0000 H   0  0  0  0  0  0  0  0  0  0  0  0
    4.1912    7.8639    0.0000 H   0  0  0  0  0  0  0  0  0  0  0  0
    1.1503    6.9818    0.0000 H   0  0  0  0  0  0  0  0  0  0  0  0
    2.4575    7.5444    0.0000 H   0  0  0  0  0  0  0  0  0  0  0  0
    0.2035    6.7004    0.0000 H   0  0  0  0  0  0  0  0  0  0  0  0
   12.8886    5.7441    0.0000 H   0  0  0  0  0  0  0  0  0  0  0  0
   13.5923    4.2695    0.0000 H   0  0  0  0  0  0  0  0  0  0  0  0
   12.5316    3.0268    0.0000 H   0  0  0  0  0  0  0  0  0  0  0  0
   13.6409    5.1140    0.0000 H   0  0  0  0  0  0  0  0  0  0  0  0
   11.3030    7.5706    0.0000 H   0  0  0  0  0  0  0  0  0  0  0  0
   11.8185   10.2171    0.0000 H   0  0  0  0  0  0  0  0  0  0  0  0
   11.1981    8.5440    0.0000 H   0  0  0  0  0  0  0  0  0  0  0  0
   15.3310   10.0847    0.0000 H   0  0  0  0  0  0  0  0  0  0  0  0
   15.0660    8.9679    0.0000 H   0  0  0  0  0  0  0  0  0  0  0  0
   12.8690   12.5934    0.0000 H   0  0  0  0  0  0  0  0  0  0  0  0
   12.2084   11.0990    0.0000 H   0  0  0  0  0  0  0  0  0  0  0  0
   16.3413   12.6397    0.0000 H   0  0  0  0  0  0  0  0  0  0  0  0
   15.7208   10.9666    0.0000 H   0  0  0  0  0  0  0  0  0  0  0  0
   15.9509   14.5987    0.0000 H   0  0  0  0  0  0  0  0  0  0  0  0
   14.0786   15.0603    0.0000 H   0  0  0  0  0  0  0  0  0  0  0  0
   13.2588   13.4753    0.0000 H   0  0  0  0  0  0  0  0  0  0  0  0
   13.8012   10.6136    0.0000 H   0  0  0  0  0  0  0  0  0  0  0  0
   16.0180    8.2611    0.0000 H   0  0  0  0  0  0  0  0  0  0  0  0
   18.9160   10.2500    0.0000 H   0  0  0  0  0  0  0  0  0  0  0  0
   17.5591   11.1600    0.0000 H   0  0  0  0  0  0  0  0  0  0  0  0
   18.1757    6.8139    0.0000 H   0  0  0  0  0  0  0  0  0  0  0  0
   16.8188    7.7240    0.0000 H   0  0  0  0  0  0  0  0  0  0  0  0
   21.0738    8.8029    0.0000 H   0  0  0  0  0  0  0  0  0  0  0  0
   19.7168    9.7129    0.0000 H   0  0  0  0  0  0  0  0  0  0  0  0
   20.5164    5.3753    0.0000 H   0  0  0  0  0  0  0  0  0  0  0  0
   18.9765    6.2769    0.0000 H   0  0  0  0  0  0  0  0  0  0  0  0
   22.5134    5.4195    0.0000 H   0  0  0  0  0  0  0  0  0  0  0  0
   23.2931    7.1832    0.0000 H   0  0  0  0  0  0  0  0  0  0  0  0
   21.8746    8.2658    0.0000 H   0  0  0  0  0  0  0  0  0  0  0  0
  1  2  1  0
  2  3  1  0
  3  4  1  0
  4  5  2  0
  4  6  1  0
  6  7  1  0
  7  8  1  0
  8  9  1  0
  9 10  1  0
 10 11  1  0
 11 12  1  0
 12 13  2  3
 12 14  1  0
  7 15  1  0
 15 16  2  0
 15 17  1  0
 17 18  1  0
 18 19  1  0
 19 20  1  0
 20 21  1  0
 21 22  1  0
 21 23  2  0
 18 24  1  0
 24 25  2  0
 24 26  1  0
 27 26  1  6
 27 28  1  0
 28 29  1  0
 29 30  1  0
 30 31  1  0
 27 32  1  0
 27 33  1  0
 33 34  2  0
 33 35  1  0
 35 36  1  0
 36 37  1  0
 37 38  1  0
 38 39  1  0
 39 40  1  0
 40 41  1  0
 36 42  1  0
 42 43  2  0
 42 44  1  0
 44 45  1  0
 45 46  1  0
 46 47  1  0
 46 48  1  0
 48 49  1  0
 45 50  1  0
 50 51  2  0
 50 52  1  0
 52 53  1  0
 53 54  1  0
 54 55  1  0
 55 56  2  0
 56 57  1  0
 57 58  1  0
 58 59  2  0
 59 60  1  0
 60 61  2  0
 61 62  1  0
 62 63  2  0
 53 64  1  0
 64 65  2  0
 64 66  1  0
 66 67  1  0
 67 68  1  0
 68 69  1  0
 69 70  1  0
 70 71  1  0
 67 72  1  0
 72 73  1  0
 73 74  1  0
 74 75  1  0
 67 76  1  0
 76 77  2  0
 76 78  1  0
 78 79  1  0
 79 80  1  0
 80 81  1  0
 81 82  1  0
 82 83  1  0
 82 84  2  0
 79 85  1  0
 85 86  2  0
 85 87  1  0
 87 88  1  0
 88 89  1  0
 89 90  1  0
 90 91  1  0
 90 92  2  0
 88 93  1  0
 93 94  2  0
 93 95  1  0
 95 96  1  0
 96 97  1  0
 97 98  1  0
 98 99  1  0
 99100  1  0
100101  1  0
101102  2  3
101103  1  0
 96104  1  0
104105  2  0
104106  1  0
106107  1  0
107108  1  0
108109  1  0
109110  1  0
110111  1  0
111112  1  0
112113  2  3
112114  1  0
107115  1  0
115116  2  0
115117  1  0
117118  1  0
118119  1  0
119120  1  0
120121  1  0
121122  1  0
118123  1  0
123124  2  0
123125  1  0
125126  1  0
126127  1  0
127128  1  0
128129  1  0
129130  1  0
130131  1  0
126132  1  0
132133  2  0
132134  1  0
134135  1  0
135136  1  0
136137  1  0
137138  1  0
138139  1  0
139140  1  0
140141  1  0
141142  1  0
135143  1  0
135144  1  1
144145  2  0
144146  1  0
146147  1  0
147148  1  0
148149  1  0
149150  1  0
150151  1  0
151152  1  0
147153  1  0
153154  2  0
153155  1  0
155156  1  0
156157  1  0
157158  1  0
158159  1  0
159160  1  0
160161  1  0
156162  1  0
162163  2  0
162164  1  0
 63 55  1  0
 63 58  1  0
 31 71  2  0
 75142  2  0
  1165  1  0
  1166  1  0
  2167  1  0
  2168  1  0
  3169  1  0
  3170  1  0
  6171  1  0
  7172  1  1
  8173  1  0
  8174  1  0
  9175  1  0
  9176  1  0
 10177  1  0
 10178  1  0
 11179  1  0
 13180  1  0
 13181  1  0
 14182  1  0
 14183  1  0
 17184  1  0
 18185  1  6
 19186  1  0
 19187  1  0
 20188  1  0
 20189  1  0
 22190  1  0
 22191  1  0
 26192  1  0
 28193  1  0
 28194  1  0
 29195  1  0
 29196  1  0
 30197  1  0
 30198  1  0
 31199  1  0
 32200  1  0
 32201  1  0
 32202  1  0
 35203  1  0
 36204  1  1
 37205  1  0
 37206  1  0
 38207  1  0
 38208  1  0
 39209  1  0
 39210  1  0
 40211  1  0
 40212  1  0
 41213  1  0
 41214  1  0
 41215  1  0
 44216  1  0
 45217  1  1
 46218  1  1
 47219  1  0
 47220  1  0
 47221  1  0
 48222  1  0
 48223  1  0
 49224  1  0
 49225  1  0
 49226  1  0
 52227  1  0
 53228  1  1
 54229  1  0
 54230  1  0
 56231  1  0
 57232  1  0
 59233  1  0
 60234  1  0
 61235  1  0
 62236  1  0
 66237  1  0
 68238  1  0
 68239  1  0
 69240  1  0
 69241  1  0
 70242  1  0
 70243  1  0
 71244  1  0
 72245  1  0
 72246  1  0
 73247  1  0
 73248  1  0
 74249  1  0
 74250  1  0
 75251  1  0
 78252  1  0
 79253  1  6
 80254  1  0
 80255  1  0
 81256  1  0
 81257  1  0
 83258  1  0
 83259  1  0
 87260  1  0
 88261  1  6
 89262  1  0
 89263  1  0
 91264  1  0
 91265  1  0
 95266  1  0
 96267  1  6
 97268  1  0
 97269  1  0
 98270  1  0
 98271  1  0
 99272  1  0
 99273  1  0
100274  1  0
102275  1  0
102276  1  0
103277  1  0
103278  1  0
106279  1  0
107280  1  6
108281  1  0
108282  1  0
109283  1  0
109284  1  0
110285  1  0
110286  1  0
111287  1  0
113288  1  0
113289  1  0
114290  1  0
114291  1  0
117292  1  0
118293  1  6
119294  1  0
119295  1  0
120296  1  0
120297  1  0
122298  1  0
122299  1  0
122300  1  0
125301  1  0
126302  1  6
127303  1  0
127304  1  0
128305  1  0
128306  1  0
129307  1  0
129308  1  0
130309  1  0
130310  1  0
131311  1  0
131312  1  0
131313  1  0
134314  1  0
136315  1  0
136316  1  0
137317  1  0
137318  1  0
138319  1  0
138320  1  0
139321  1  0
139322  1  0
140323  1  0
140324  1  0
141325  1  0
141326  1  0
142327  1  0
143328  1  0
143329  1  0
143330  1  0
146331  1  0
147332  1  1
148333  1  0
148334  1  0
149335  1  0
149336  1  0
150337  1  0
150338  1  0
151339  1  0
151340  1  0
152341  1  0
152342  1  0
152343  1  0
155344  1  0
156345  1  6
157346  1  0
157347  1  0
158348  1  0
158349  1  0
159350  1  0
159351  1  0
160352  1  0
160353  1  0
161354  1  0
161355  1  0
161356  1  0
M  CHG  8  13   1  41   1 102   1 113   1 131   1 152   1 161   1 164  -1
M  END
