
     RDKit          2D

297303  0  0  0  0  0  0  0  0999 V2000
   28.3635   -0.7643    0.0000 C   0  0  0  0  0  0  0  0  0  0  0  0
   29.6644   -0.0175    0.0000 N   0  0  0  0  0  0  0  0  0  0  0  0
   30.9616   -0.7706    0.0000 C   0  0  0  0  0  0  0  0  0  0  0  0
   30.9579   -2.2706    0.0000 C   0  0  0  0  0  0  0  0  0  0  0  0
   32.2551   -3.0238    0.0000 C   0  0  0  0  0  0  0  0  0  0  0  0
   33.5560   -2.2769    0.0000 C   0  0  0  0  0  0  0  0  0  0  0  0
   33.5596   -0.7769    0.0000 C   0  0  0  0  0  0  0  0  0  0  0  0
   32.2624   -0.0238    0.0000 C   0  0  0  0  0  0  0  0  0  0  0  0
   34.9873   -0.3169    0.0000 C   0  0  0  0  0  0  0  0  0  0  0  0
   35.8661   -1.5325    0.0000 O   0  0  0  0  0  0  0  0  0  0  0  0
   34.9815   -2.7439    0.0000 C   0  0  0  0  0  0  0  0  0  0  0  0
   35.4415   -4.1716    0.0000 O   0  0  0  0  0  0  0  0  0  0  0  0
   36.4553   -0.0085    0.0000 C   0  0  0  0  0  0  0  0  0  0  0  0
   36.9223    1.4169    0.0000 C   0  0  0  0  0  0  0  0  0  0  0  0
   38.3903    1.7252    0.0000 C   0  0  0  0  0  0  0  0  0  0  0  0
   39.3913    0.6081    0.0000 C   0  0  0  0  0  0  0  0  0  0  0  0
   38.9243   -0.8174    0.0000 C   0  0  0  0  0  0  0  0  0  0  0  0
   37.4563   -1.1257    0.0000 C   0  0  0  0  0  0  0  0  0  0  0  0
   40.8592    0.9164    0.0000 O   0  0  0  0  0  0  0  0  0  0  0  0
   35.9213    2.5341    0.0000 O   0  0  0  0  0  0  0  0  0  0  0  0
   34.4533    2.2258    0.0000 C   0  0  0  0  0  0  0  0  0  0  0  0
   33.9864    0.8003    0.0000 C   0  0  0  0  0  0  0  0  0  0  0  0
   32.7363    1.1572    0.0000 C   0  0  0  0  0  0  0  0  0  0  0  0
   32.2025    1.7530    0.0000 C   0  0  0  0  0  0  0  0  0  0  0  0
   32.4515    2.5133    0.0000 C   0  0  0  0  0  0  0  0  0  0  0  0
   33.2344    2.6777    0.0000 C   0  0  0  0  0  0  0  0  0  0  0  0
   30.9834    4.1518    0.0000 O   0  0  0  0  0  0  0  0  0  0  0  0
   28.3599   -2.2643    0.0000 S   0  0  0  0  0  0  0  0  0  0  0  0
   27.0663   -0.0111    0.0000 N   0  0  0  0  0  0  0  0  0  0  0  0
   25.7654   -0.7580    0.0000 C   0  0  0  0  0  0  0  0  0  0  0  0
   24.4682   -0.0048    0.0000 C   0  0  0  0  0  0  0  0  0  0  0  0
   23.1674   -0.7517    0.0000 C   0  0  0  0  0  0  0  0  0  0  0  0
   23.1637   -2.2517    0.0000 O   0  0  0  0  0  0  0  0  0  0  0  0
   21.8702    0.0015    0.0000 N   0  0  0  0  0  0  0  0  0  0  0  0
   20.5693   -0.7454    0.0000 C   0  0  0  0  0  0  0  0  0  0  0  0
   19.6023   -1.8921    0.0000 C   0  0  0  0  0  0  0  0  0  0  0  0
   18.1258   -1.6280    0.0000 C   0  0  0  0  0  0  0  0  0  0  0  0
   17.1588   -2.7748    0.0000 N   0  0  0  0  0  0  0  0  0  0  0  0
   17.6816   -0.9661    0.0000 O   0  0  0  0  0  0  0  0  0  0  0  0
   19.2721    0.0078    0.0000 C   0  0  0  0  0  0  0  0  0  0  0  0
   19.2757    1.5078    0.0000 O   0  0  0  0  0  0  0  0  0  0  0  0
   17.9712   -0.7391    0.0000 N   0  0  0  0  0  0  0  0  0  0  0  0
   16.6740    0.0141    0.0000 C   0  0  0  0  0  0  0  0  0  0  0  0
   15.7126    1.1655    0.0000 C   0  0  0  0  0  0  0  0  0  0  0  0
   14.2348    0.9086    0.0000 C   0  0  0  0  0  0  0  0  0  0  0  0
   13.2734    2.0600    0.0000 C   0  0  0  0  0  0  0  0  0  0  0  0
   11.7753    1.9852    0.0000 O   0  0  0  0  0  0  0  0  0  0  0  0
   13.7898    3.4683    0.0000 O   0  0  0  0  0  0  0  0  0  0  0  0
   15.3732   -0.7328    0.0000 C   0  0  0  0  0  0  0  0  0  0  0  0
   15.1867   -2.2211    0.0000 O   0  0  0  0  0  0  0  0  0  0  0  0
   14.0759    0.0204    0.0000 N   0  0  0  0  0  0  0  0  0  0  0  0
   12.7751   -0.7264    0.0000 C   0  0  0  0  0  0  0  0  0  0  0  0
   11.8081   -1.8732    0.0000 C   0  0  0  0  0  0  0  0  0  0  0  0
   10.3315   -1.6091    0.0000 C   0  0  0  0  0  0  0  0  0  0  0  0
    9.3646   -2.7558    0.0000 C   0  0  0  0  0  0  0  0  0  0  0  0
    9.0343   -0.8560    0.0000 C   0  0  0  0  0  0  0  0  0  0  0  0
   11.4779    0.0267    0.0000 C   0  0  0  0  0  0  0  0  0  0  0  0
   11.2986    1.5160    0.0000 O   0  0  0  0  0  0  0  0  0  0  0  0
   10.1770   -0.7201    0.0000 N   0  0  0  0  0  0  0  0  0  0  0  0
    8.8798    0.0330    0.0000 C   0  0  0  0  0  0  0  0  0  0  0  0
    7.9184    1.1844    0.0000 C   0  0  0  0  0  0  0  0  0  0  0  0
    8.4349    2.5927    0.0000 C   0  0  0  0  0  0  0  0  0  0  0  0
    7.4735    3.7441    0.0000 C   0  0  0  0  0  0  0  0  0  0  0  0
    7.9899    5.1524    0.0000 C   0  0  0  0  0  0  0  0  0  0  0  0
    7.0285    6.3038    0.0000 N   0  0  0  0  0  0  0  0  0  0  0  0
    7.5790   -0.7138    0.0000 C   0  0  0  0  0  0  0  0  0  0  0  0
    7.2125   -2.1684    0.0000 O   0  0  0  0  0  0  0  0  0  0  0  0
    6.2817    0.0393    0.0000 N   0  0  0  0  0  0  0  0  0  0  0  0
    4.9809   -0.7075    0.0000 C   0  0  0  0  0  0  0  0  0  0  0  0
    4.0139   -1.8542    0.0000 C   0  0  0  0  0  0  0  0  0  0  0  0
    2.5373   -1.5902    0.0000 C   0  0  0  0  0  0  0  0  0  0  0  0
    1.5704   -2.7369    0.0000 C   0  0  0  0  0  0  0  0  0  0  0  0
    0.0938   -2.4728    0.0000 N   0  0  0  0  0  0  0  0  0  0  0  0
   -0.8732   -3.6196    0.0000 C   0  0  0  0  0  0  0  0  0  0  0  0
   -2.3065   -3.1775    0.0000 N   0  0  0  0  0  0  0  0  0  0  0  0
   -0.3636   -5.0303    0.0000 N   0  0  0  0  0  0  0  0  0  0  0  0
    3.6837    0.0456    0.0000 C   0  0  0  0  0  0  0  0  0  0  0  0
    3.6873    1.5456    0.0000 O   0  0  0  0  0  0  0  0  0  0  0  0
    2.3828   -0.7012    0.0000 N   0  0  0  0  0  0  0  0  0  0  0  0
    1.0856    0.0519    0.0000 C   0  0  0  0  0  0  0  0  0  0  0  0
    0.1242    1.2033    0.0000 C   0  0  0  0  0  0  0  0  0  0  0  0
    0.6407    2.6116    0.0000 O   0  0  0  0  0  0  0  0  0  0  0  0
   -0.2153   -0.6949    0.0000 C   0  0  0  0  0  0  0  0  0  0  0  0
   -0.5817   -2.1494    0.0000 O   0  0  0  0  0  0  0  0  0  0  0  0
   -1.5125    0.0582    0.0000 N   0  0  0  0  0  0  0  0  0  0  0  0
   -2.8133   -0.6886    0.0000 C   0  0  0  0  0  0  0  0  0  0  0  0
   -3.7803   -1.8353    0.0000 C   0  0  0  0  0  0  0  0  0  0  0  0
   -5.2569   -1.5713    0.0000 C   0  0  0  0  0  0  0  0  0  0  0  0
   -5.7665   -0.1605    0.0000 C   0  0  0  0  0  0  0  0  0  0  0  0
   -7.2430    0.1036    0.0000 C   0  0  0  0  0  0  0  0  0  0  0  0
   -8.2100   -1.0431    0.0000 C   0  0  0  0  0  0  0  0  0  0  0  0
   -7.7004   -2.4539    0.0000 C   0  0  0  0  0  0  0  0  0  0  0  0
   -6.2238   -2.7180    0.0000 C   0  0  0  0  0  0  0  0  0  0  0  0
   -4.1105    0.0646    0.0000 C   0  0  0  0  0  0  0  0  0  0  0  0
   -3.7440    1.5191    0.0000 O   0  0  0  0  0  0  0  0  0  0  0  0
   -5.4114   -0.6823    0.0000 N   0  0  0  0  0  0  0  0  0  0  0  0
   -6.7086    0.0709    0.0000 C   0  0  0  0  0  0  0  0  0  0  0  0
   -7.6700    1.2223    0.0000 C   0  0  0  0  0  0  0  0  0  0  0  0
   -7.1535    2.6306    0.0000 C   0  0  0  0  0  0  0  0  0  0  0  0
   -5.6757    2.8874    0.0000 C   0  0  0  0  0  0  0  0  0  0  0  0
   -5.1592    4.2957    0.0000 C   0  0  0  0  0  0  0  0  0  0  0  0
   -6.1206    5.4471    0.0000 C   0  0  0  0  0  0  0  0  0  0  0  0
   -7.5985    5.1903    0.0000 C   0  0  0  0  0  0  0  0  0  0  0  0
   -8.1149    3.7820    0.0000 C   0  0  0  0  0  0  0  0  0  0  0  0
   -8.0095   -0.6760    0.0000 C   0  0  0  0  0  0  0  0  0  0  0  0
   -8.3760   -2.1305    0.0000 O   0  0  0  0  0  0  0  0  0  0  0  0
   -9.3067    0.0772    0.0000 N   0  0  0  0  0  0  0  0  0  0  0  0
  -10.6075   -0.6697    0.0000 C   0  0  0  0  0  0  0  0  0  0  0  0
  -11.5745   -1.8164    0.0000 C   0  0  0  0  0  0  0  0  0  0  0  0
  -11.9047    0.0835    0.0000 C   0  0  0  0  0  0  0  0  0  0  0  0
  -11.9011    1.5835    0.0000 O   0  0  0  0  0  0  0  0  0  0  0  0
  -13.2056   -0.6634    0.0000 N   0  0  0  0  0  0  0  0  0  0  0  0
  -14.5028    0.0898    0.0000 C   0  0  0  0  0  0  0  0  0  0  0  0
  -15.4642    1.2412    0.0000 C   0  0  0  0  0  0  0  0  0  0  0  0
  -14.9477    2.6495    0.0000 C   0  0  0  0  0  0  0  0  0  0  0  0
  -15.9091    3.8009    0.0000 C   0  0  0  0  0  0  0  0  0  0  0  0
  -13.9808    3.7962    0.0000 C   0  0  0  0  0  0  0  0  0  0  0  0
  -15.8037   -0.6571    0.0000 C   0  0  0  0  0  0  0  0  0  0  0  0
  -15.8073   -2.1570    0.0000 O   0  0  0  0  0  0  0  0  0  0  0  0
  -17.1009    0.0961    0.0000 N   0  0  0  0  0  0  0  0  0  0  0  0
  -18.4017   -0.6507    0.0000 C   0  0  0  0  0  0  0  0  0  0  0  0
  -19.3687   -1.7975    0.0000 C   0  0  0  0  0  0  0  0  0  0  0  0
  -20.8453   -1.5334    0.0000 C   0  0  0  0  0  0  0  0  0  0  0  0
  -21.8122   -2.6801    0.0000 C   0  0  0  0  0  0  0  0  0  0  0  0
  -23.2888   -2.4161    0.0000 N   0  0  0  0  0  0  0  0  0  0  0  0
  -24.2558   -3.5628    0.0000 C   0  0  0  0  0  0  0  0  0  0  0  0
  -25.6892   -3.1207    0.0000 N   0  0  0  0  0  0  0  0  0  0  0  0
  -23.7462   -4.9736    0.0000 N   0  0  0  0  0  0  0  0  0  0  0  0
  -19.6989    0.1024    0.0000 C   0  0  0  0  0  0  0  0  0  0  0  0
  -19.6953    1.6024    0.0000 O   0  0  0  0  0  0  0  0  0  0  0  0
  -20.9998   -0.6444    0.0000 N   0  0  0  0  0  0  0  0  0  0  0  0
  -22.2970    0.1087    0.0000 C   0  0  0  0  0  0  0  0  0  0  0  0
  -23.2584    1.2601    0.0000 C   0  0  0  0  0  0  0  0  0  0  0  0
  -22.7420    2.6684    0.0000 C   0  0  0  0  0  0  0  0  0  0  0  0
  -23.7033    3.8198    0.0000 O   0  0  0  0  0  0  0  0  0  0  0  0
  -21.2641    2.9253    0.0000 O   0  0  0  0  0  0  0  0  0  0  0  0
  -23.5979   -0.6381    0.0000 C   0  0  0  0  0  0  0  0  0  0  0  0
  -23.9644   -2.0927    0.0000 O   0  0  0  0  0  0  0  0  0  0  0  0
  -24.8951    0.1150    0.0000 N   0  0  0  0  0  0  0  0  0  0  0  0
  -26.1959   -0.6318    0.0000 C   0  0  0  0  0  0  0  0  0  0  0  0
  -27.1629   -1.7785    0.0000 C   0  0  0  0  0  0  0  0  0  0  0  0
  -28.6395   -1.5145    0.0000 C   0  0  0  0  0  0  0  0  0  0  0  0
  -29.6064   -2.6612    0.0000 C   0  0  0  0  0  0  0  0  0  0  0  0
  -31.1042   -2.5791    0.0000 N   0  0  0  0  0  0  0  0  0  0  0  0
  -29.0968   -4.0720    0.0000 O   0  0  0  0  0  0  0  0  0  0  0  0
  -27.4932    0.1213    0.0000 C   0  0  0  0  0  0  0  0  0  0  0  0
  -27.4895    1.6213    0.0000 O   0  0  0  0  0  0  0  0  0  0  0  0
  -28.7940   -0.6255    0.0000 N   0  0  0  0  0  0  0  0  0  0  0  0
  -30.0912    0.1276    0.0000 C   0  0  0  0  0  0  0  0  0  0  0  0
  -31.0526    1.2790    0.0000 C   0  0  0  0  0  0  0  0  0  0  0  0
  -30.3683    2.6139    0.0000 C   0  0  0  0  0  0  0  0  0  0  0  0
  -32.3498    2.0322    0.0000 C   0  0  0  0  0  0  0  0  0  0  0  0
  -32.3462    3.5322    0.0000 C   0  0  0  0  0  0  0  0  0  0  0  0
  -31.3921   -0.6192    0.0000 C   0  0  0  0  0  0  0  0  0  0  0  0
  -32.8330   -0.2023    0.0000 O   0  0  0  0  0  0  0  0  0  0  0  0
  -31.5785   -2.1076    0.0000 O   0  0  0  0  0  0  0  0  0  0  0  0
   29.4851    1.4718    0.0000 H   0  0  0  0  0  0  0  0  0  0  0  0
   29.6571   -3.0174    0.0000 H   0  0  0  0  0  0  0  0  0  0  0  0
   32.2515   -4.5237    0.0000 H   0  0  0  0  0  0  0  0  0  0  0  0
   31.9030    1.4325    0.0000 H   0  0  0  0  0  0  0  0  0  0  0  0
   38.8573    3.1507    0.0000 H   0  0  0  0  0  0  0  0  0  0  0  0
   39.9253   -1.9345    0.0000 H   0  0  0  0  0  0  0  0  0  0  0  0
   36.9893   -2.5512    0.0000 H   0  0  0  0  0  0  0  0  0  0  0  0
   41.8602   -0.2008    0.0000 H   0  0  0  0  0  0  0  0  0  0  0  0
   32.0514   -0.9335    0.0000 H   0  0  0  0  0  0  0  0  0  0  0  0
   30.0228    1.4821    0.0000 H   0  0  0  0  0  0  0  0  0  0  0  0
   33.9193    4.7684    0.0000 H   0  0  0  0  0  0  0  0  0  0  0  0
   31.4504    5.5772    0.0000 H   0  0  0  0  0  0  0  0  0  0  0  0
   27.0699    1.4889    0.0000 H   0  0  0  0  0  0  0  0  0  0  0  0
   24.7985   -1.9047    0.0000 H   0  0  0  0  0  0  0  0  0  0  0  0
   26.7268   -1.9094    0.0000 H   0  0  0  0  0  0  0  0  0  0  0  0
   23.5068    1.1466    0.0000 H   0  0  0  0  0  0  0  0  0  0  0  0
   25.4352    1.1419    0.0000 H   0  0  0  0  0  0  0  0  0  0  0  0
   21.8738    1.5015    0.0000 H   0  0  0  0  0  0  0  0  0  0  0  0
   21.5307   -1.8968    0.0000 H   0  0  0  0  0  0  0  0  0  0  0  0
   19.0859   -3.3004    0.0000 H   0  0  0  0  0  0  0  0  0  0  0  0
   20.8995   -2.6452    0.0000 H   0  0  0  0  0  0  0  0  0  0  0  0
   15.6610   -2.6927    0.0000 H   0  0  0  0  0  0  0  0  0  0  0  0
   17.6684   -4.1855    0.0000 H   0  0  0  0  0  0  0  0  0  0  0  0
   17.6047   -2.1936    0.0000 H   0  0  0  0  0  0  0  0  0  0  0  0
   17.6410    1.1608    0.0000 H   0  0  0  0  0  0  0  0  0  0  0  0
   15.2030    2.5763    0.0000 H   0  0  0  0  0  0  0  0  0  0  0  0
   17.0135    1.9123    0.0000 H   0  0  0  0  0  0  0  0  0  0  0  0
   12.9339    0.1618    0.0000 H   0  0  0  0  0  0  0  0  0  0  0  0
   14.0223   -0.5763    0.0000 H   0  0  0  0  0  0  0  0  0  0  0  0
   12.8285    4.6197    0.0000 H   0  0  0  0  0  0  0  0  0  0  0  0
   13.7165    1.4767    0.0000 H   0  0  0  0  0  0  0  0  0  0  0  0
   13.7365   -1.8778    0.0000 H   0  0  0  0  0  0  0  0  0  0  0  0
   11.4672   -3.3339    0.0000 H   0  0  0  0  0  0  0  0  0  0  0  0
   13.1053   -2.6263    0.0000 H   0  0  0  0  0  0  0  0  0  0  0  0
   10.1262   -0.1232    0.0000 H   0  0  0  0  0  0  0  0  0  0  0  0
    7.8680   -2.8569    0.0000 H   0  0  0  0  0  0  0  0  0  0  0  0
    8.8481   -4.1641    0.0000 H   0  0  0  0  0  0  0  0  0  0  0  0
   10.5603   -3.6615    0.0000 H   0  0  0  0  0  0  0  0  0  0  0  0
    7.7335   -1.6028    0.0000 H   0  0  0  0  0  0  0  0  0  0  0  0
    8.0729    0.2954    0.0000 H   0  0  0  0  0  0  0  0  0  0  0  0
   10.1339    0.1643    0.0000 H   0  0  0  0  0  0  0  0  0  0  0  0
    9.8105   -2.1747    0.0000 H   0  0  0  0  0  0  0  0  0  0  0  0
    9.8468    1.1797    0.0000 H   0  0  0  0  0  0  0  0  0  0  0  0
    6.6212    1.9376    0.0000 H   0  0  0  0  0  0  0  0  0  0  0  0
    6.7027    0.3058    0.0000 H   0  0  0  0  0  0  0  0  0  0  0  0
    9.5344    3.6130    0.0000 H   0  0  0  0  0  0  0  0  0  0  0  0
    9.8142    2.0033    0.0000 H   0  0  0  0  0  0  0  0  0  0  0  0
    6.1763    4.4973    0.0000 H   0  0  0  0  0  0  0  0  0  0  0  0
    6.3739    2.7238    0.0000 H   0  0  0  0  0  0  0  0  0  0  0  0
    8.9569    6.2991    0.0000 H   0  0  0  0  0  0  0  0  0  0  0  0
    9.3693    4.5630    0.0000 H   0  0  0  0  0  0  0  0  0  0  0  0
    7.5450    7.7121    0.0000 H   0  0  0  0  0  0  0  0  0  0  0  0
    5.5507    6.0469    0.0000 H   0  0  0  0  0  0  0  0  0  0  0  0
    6.1025    1.5286    0.0000 H   0  0  0  0  0  0  0  0  0  0  0  0
    5.9423   -1.8589    0.0000 H   0  0  0  0  0  0  0  0  0  0  0  0
    3.6730   -3.3150    0.0000 H   0  0  0  0  0  0  0  0  0  0  0  0
    5.3111   -2.6074    0.0000 H   0  0  0  0  0  0  0  0  0  0  0  0
    1.2401   -0.8370    0.0000 H   0  0  0  0  0  0  0  0  0  0  0  0
    2.3320   -0.1043    0.0000 H   0  0  0  0  0  0  0  0  0  0  0  0
    1.0539   -4.1452    0.0000 H   0  0  0  0  0  0  0  0  0  0  0  0
    2.7661   -3.6426    0.0000 H   0  0  0  0  0  0  0  0  0  0  0  0
   -0.7420   -1.2273    0.0000 H   0  0  0  0  0  0  0  0  0  0  0  0
   -3.3167   -4.5022    0.0000 H   0  0  0  0  0  0  0  0  0  0  0  0
   -1.3305   -6.1771    0.0000 H   0  0  0  0  0  0  0  0  0  0  0  0
    1.1130   -5.2944    0.0000 H   0  0  0  0  0  0  0  0  0  0  0  0
    2.0163   -2.1557    0.0000 H   0  0  0  0  0  0  0  0  0  0  0  0
    2.0526    1.1987    0.0000 H   0  0  0  0  0  0  0  0  0  0  0  0
   -1.0715    2.1090    0.0000 H   0  0  0  0  0  0  0  0  0  0  0  0
   -1.0915    0.3247    0.0000 H   0  0  0  0  0  0  0  0  0  0  0  0
   -0.3207    3.7630    0.0000 H   0  0  0  0  0  0  0  0  0  0  0  0
   -1.6917    1.5475    0.0000 H   0  0  0  0  0  0  0  0  0  0  0  0
   -1.8519   -1.8400    0.0000 H   0  0  0  0  0  0  0  0  0  0  0  0
   -4.2967   -3.2436    0.0000 H   0  0  0  0  0  0  0  0  0  0  0  0
   -2.4009   -2.4247    0.0000 H   0  0  0  0  0  0  0  0  0  0  0  0
   -4.7995    0.9862    0.0000 H   0  0  0  0  0  0  0  0  0  0  0  0
   -8.0789    1.3491    0.0000 H   0  0  0  0  0  0  0  0  0  0  0  0
   -9.6866   -0.7791    0.0000 H   0  0  0  0  0  0  0  0  0  0  0  0
   -8.6674   -3.6006    0.0000 H   0  0  0  0  0  0  0  0  0  0  0  0
   -5.7142   -4.1288    0.0000 H   0  0  0  0  0  0  0  0  0  0  0  0
   -5.7779   -2.1368    0.0000 H   0  0  0  0  0  0  0  0  0  0  0  0
   -5.7416    1.2176    0.0000 H   0  0  0  0  0  0  0  0  0  0  0  0
   -8.8657    2.1279    0.0000 H   0  0  0  0  0  0  0  0  0  0  0  0
   -8.8857    0.3436    0.0000 H   0  0  0  0  0  0  0  0  0  0  0  0
   -4.4643    2.0029    0.0000 H   0  0  0  0  0  0  0  0  0  0  0  0
   -3.6814    4.5526    0.0000 H   0  0  0  0  0  0  0  0  0  0  0  0
   -5.6042    6.8554    0.0000 H   0  0  0  0  0  0  0  0  0  0  0  0
   -8.5599    6.3417    0.0000 H   0  0  0  0  0  0  0  0  0  0  0  0
   -9.5928    3.5251    0.0000 H   0  0  0  0  0  0  0  0  0  0  0  0
   -9.4859    1.5664    0.0000 H   0  0  0  0  0  0  0  0  0  0  0  0
   -9.6461   -1.8211    0.0000 H   0  0  0  0  0  0  0  0  0  0  0  0
  -13.0476   -2.0991    0.0000 H   0  0  0  0  0  0  0  0  0  0  0  0
  -12.0909   -3.2247    0.0000 H   0  0  0  0  0  0  0  0  0  0  0  0
  -10.2773   -2.5695    0.0000 H   0  0  0  0  0  0  0  0  0  0  0  0
  -13.3921   -2.1517    0.0000 H   0  0  0  0  0  0  0  0  0  0  0  0
  -13.4033    1.1101    0.0000 H   0  0  0  0  0  0  0  0  0  0  0  0
  -16.7614    1.9943    0.0000 H   0  0  0  0  0  0  0  0  0  0  0  0
  -16.6799    0.3625    0.0000 H   0  0  0  0  0  0  0  0  0  0  0  0
  -13.5684    2.0601    0.0000 H   0  0  0  0  0  0  0  0  0  0  0  0
  -15.5682    5.2616    0.0000 H   0  0  0  0  0  0  0  0  0  0  0  0
  -17.2063    4.5540    0.0000 H   0  0  0  0  0  0  0  0  0  0  0  0
  -17.0087    2.7806    0.0000 H   0  0  0  0  0  0  0  0  0  0  0  0
  -14.3146    5.2586    0.0000 H   0  0  0  0  0  0  0  0  0  0  0  0
  -12.6799    4.5431    0.0000 H   0  0  0  0  0  0  0  0  0  0  0  0
  -13.0194    2.6448    0.0000 H   0  0  0  0  0  0  0  0  0  0  0  0
  -17.2801    1.5854    0.0000 H   0  0  0  0  0  0  0  0  0  0  0  0
  -17.4403   -1.8021    0.0000 H   0  0  0  0  0  0  0  0  0  0  0  0
  -19.7096   -3.2582    0.0000 H   0  0  0  0  0  0  0  0  0  0  0  0
  -18.0715   -2.5506    0.0000 H   0  0  0  0  0  0  0  0  0  0  0  0
  -22.1425   -0.7803    0.0000 H   0  0  0  0  0  0  0  0  0  0  0  0
  -21.0506   -0.0475    0.0000 H   0  0  0  0  0  0  0  0  0  0  0  0
  -22.3287   -4.0884    0.0000 H   0  0  0  0  0  0  0  0  0  0  0  0
  -20.6165   -3.5858    0.0000 H   0  0  0  0  0  0  0  0  0  0  0  0
  -24.1247   -1.1705    0.0000 H   0  0  0  0  0  0  0  0  0  0  0  0
  -26.6993   -4.4455    0.0000 H   0  0  0  0  0  0  0  0  0  0  0  0
  -24.7131   -6.1203    0.0000 H   0  0  0  0  0  0  0  0  0  0  0  0
  -22.2696   -5.2376    0.0000 H   0  0  0  0  0  0  0  0  0  0  0  0
  -21.3663   -2.0990    0.0000 H   0  0  0  0  0  0  0  0  0  0  0  0
  -21.3300    1.2554    0.0000 H   0  0  0  0  0  0  0  0  0  0  0  0
  -24.4541    2.1658    0.0000 H   0  0  0  0  0  0  0  0  0  0  0  0
  -24.4741    0.3815    0.0000 H   0  0  0  0  0  0  0  0  0  0  0  0
  -20.7477    4.3336    0.0000 H   0  0  0  0  0  0  0  0  0  0  0  0
  -25.0743    1.6043    0.0000 H   0  0  0  0  0  0  0  0  0  0  0  0
  -25.2345   -1.7832    0.0000 H   0  0  0  0  0  0  0  0  0  0  0  0
  -27.6794   -3.1868    0.0000 H   0  0  0  0  0  0  0  0  0  0  0  0
  -25.7836   -2.3679    0.0000 H   0  0  0  0  0  0  0  0  0  0  0  0
  -29.9367   -0.7613    0.0000 H   0  0  0  0  0  0  0  0  0  0  0  0
  -28.8448   -0.0286    0.0000 H   0  0  0  0  0  0  0  0  0  0  0  0
  -32.0500   -3.5439    0.0000 H   0  0  0  0  0  0  0  0  0  0  0  0
  -31.9635   -1.1519    0.0000 H   0  0  0  0  0  0  0  0  0  0  0  0
  -29.1605   -2.0800    0.0000 H   0  0  0  0  0  0  0  0  0  0  0  0
  -28.9917    1.1479    0.0000 H   0  0  0  0  0  0  0  0  0  0  0  0
  -32.1521    0.2587    0.0000 H   0  0  0  0  0  0  0  0  0  0  0  0
  -31.3398    3.9673    0.0000 H   0  0  0  0  0  0  0  0  0  0  0  0
  -29.5692    3.8341    0.0000 H   0  0  0  0  0  0  0  0  0  0  0  0
  -29.1568    2.0979    0.0000 H   0  0  0  0  0  0  0  0  0  0  0  0
  -33.8264    2.2963    0.0000 H   0  0  0  0  0  0  0  0  0  0  0  0
  -33.0341    0.6974    0.0000 H   0  0  0  0  0  0  0  0  0  0  0  0
  -33.6434    4.2853    0.0000 H   0  0  0  0  0  0  0  0  0  0  0  0
  -31.8297    4.9405    0.0000 H   0  0  0  0  0  0  0  0  0  0  0  0
  -30.8496    3.6333    0.0000 H   0  0  0  0  0  0  0  0  0  0  0  0
  -32.6966   -2.8660    0.0000 H   0  0  0  0  0  0  0  0  0  0  0  0
  1  2  1  0
  2  3  1  0
  3  4  2  0
  4  5  1  0
  5  6  2  0
  6  7  1  0
  7  8  2  0
  7  9  1  0
  9 10  1  0
 10 11  1  0
 11 12  2  0
  9 13  1  0
 13 14  1  0
 14 15  2  0
 15 16  1  0
 16 17  2  0
 17 18  1  0
 16 19  1  0
 14 20  1  0
 20 21  1  0
 21 22  2  0
 22 23  1  0
 23 24  2  0
 24 25  1  0
 25 26  2  0
 25 27  1  0
  1 28  2  0
  1 29  1  0
 29 30  1  0
 30 31  1  0
 31 32  1  0
 32 33  2  0
 32 34  1  0
 34 35  1  0
 35 36  1  0
 36 37  1  0
 37 38  1  0
 37 39  2  0
 35 40  1  0
 40 41  2  0
 40 42  1  0
 42 43  1  0
 43 44  1  0
 44 45  1  0
 45 46  1  0
 46 47  2  0
 46 48  1  0
 43 49  1  0
 49 50  2  0
 49 51  1  0
 51 52  1  0
 52 53  1  0
 53 54  1  0
 54 55  1  0
 54 56  1  0
 52 57  1  0
 57 58  2  0
 57 59  1  0
 59 60  1  0
 60 61  1  0
 61 62  1  0
 62 63  1  0
 63 64  1  0
 64 65  1  0
 60 66  1  0
 66 67  2  0
 66 68  1  0
 68 69  1  0
 69 70  1  0
 70 71  1  0
 71 72  1  0
 72 73  1  0
 73 74  1  0
 74 75  2  3
 74 76  1  0
 69 77  1  0
 77 78  2  0
 77 79  1  0
 79 80  1  0
 80 81  1  0
 81 82  1  0
 80 83  1  0
 83 84  2  0
 83 85  1  0
 85 86  1  0
 86 87  1  0
 87 88  1  0
 88 89  2  0
 89 90  1  0
 90 91  2  0
 91 92  1  0
 92 93  2  0
 86 94  1  0
 94 95  2  0
 94 96  1  0
 96 97  1  0
 97 98  1  0
 98 99  1  0
 99100  2  0
100101  1  0
101102  2  0
102103  1  0
103104  2  0
 97105  1  0
105106  2  0
105107  1  0
107108  1  0
108109  1  0
108110  1  0
110111  2  0
110112  1  0
112113  1  0
113114  1  0
114115  1  0
115116  1  0
115117  1  0
113118  1  0
118119  2  0
118120  1  0
120121  1  0
121122  1  0
122123  1  0
123124  1  0
124125  1  0
125126  1  0
126127  2  3
126128  1  0
121129  1  0
129130  2  0
129131  1  0
131132  1  0
132133  1  0
133134  1  0
134135  2  0
134136  1  0
132137  1  0
137138  2  0
137139  1  0
139140  1  0
140141  1  0
141142  1  0
142143  1  0
143144  1  0
143145  2  0
140146  1  0
146147  2  0
146148  1  0
148149  1  0
149150  1  0
150151  1  0
150152  1  0
152153  1  0
149154  1  0
154155  2  0
154156  1  0
  8  3  1  0
 93 88  1  0
104 99  1  0
 11  6  1  0
 18 13  2  0
 22  9  1  0
 26 21  1  0
  2157  1  0
  4158  1  0
  5159  1  0
  8160  1  0
 15161  1  0
 17162  1  0
 18163  1  0
 19164  1  0
 23165  1  0
 24166  1  0
 26167  1  0
 27168  1  0
 29169  1  0
 30170  1  0
 30171  1  0
 31172  1  0
 31173  1  0
 34174  1  0
 35175  1  1
 36176  1  0
 36177  1  0
 38178  1  0
 38179  1  0
 42180  1  0
 43181  1  6
 44182  1  0
 44183  1  0
 45184  1  0
 45185  1  0
 48186  1  0
 51187  1  0
 52188  1  1
 53189  1  0
 53190  1  0
 54191  1  0
 55192  1  0
 55193  1  0
 55194  1  0
 56195  1  0
 56196  1  0
 56197  1  0
 59198  1  0
 60199  1  6
 61200  1  0
 61201  1  0
 62202  1  0
 62203  1  0
 63204  1  0
 63205  1  0
 64206  1  0
 64207  1  0
 65208  1  0
 65209  1  0
 68210  1  0
 69211  1  1
 70212  1  0
 70213  1  0
 71214  1  0
 71215  1  0
 72216  1  0
 72217  1  0
 73218  1  0
 75219  1  0
 76220  1  0
 76221  1  0
 79222  1  0
 80223  1  6
 81224  1  0
 81225  1  0
 82226  1  0
 85227  1  0
 86228  1  1
 87229  1  0
 87230  1  0
 89231  1  0
 90232  1  0
 91233  1  0
 92234  1  0
 93235  1  0
 96236  1  0
 97237  1  6
 98238  1  0
 98239  1  0
100240  1  0
101241  1  0
102242  1  0
103243  1  0
104244  1  0
107245  1  0
108246  1  1
109247  1  0
109248  1  0
109249  1  0
112250  1  0
113251  1  6
114252  1  0
114253  1  0
115254  1  0
116255  1  0
116256  1  0
116257  1  0
117258  1  0
117259  1  0
117260  1  0
120261  1  0
121262  1  1
122263  1  0
122264  1  0
123265  1  0
123266  1  0
124267  1  0
124268  1  0
125269  1  0
127270  1  0
128271  1  0
128272  1  0
131273  1  0
132274  1  6
133275  1  0
133276  1  0
136277  1  0
139278  1  0
140279  1  1
141280  1  0
141281  1  0
142282  1  0
142283  1  0
144284  1  0
144285  1  0
148286  1  0
149287  1  6
150288  1  1
151289  1  0
151290  1  0
151291  1  0
152292  1  0
152293  1  0
153294  1  0
153295  1  0
153296  1  0
156297  1  0
M  END
