
     RDKit          2D

384387  0  0  0  0  0  0  0  0999 V2000
  -25.6454    4.2333    0.0000 N   0  0  0  0  0  0  0  0  0  0  0  0
  -24.3193    3.5324    0.0000 C   0  0  0  0  0  0  0  0  0  0  0  0
  -24.2632    2.0334    0.0000 C   0  0  0  0  0  0  0  0  0  0  0  0
  -22.9370    1.3325    0.0000 C   0  0  0  0  0  0  0  0  0  0  0  0
  -21.6669    2.1306    0.0000 O   0  0  0  0  0  0  0  0  0  0  0  0
  -22.8809   -0.1664    0.0000 N   0  0  0  0  0  0  0  0  0  0  0  0
  -21.5547   -0.8673    0.0000 C   0  0  0  0  0  0  0  0  0  0  0  0
  -22.4753   -2.0516    0.0000 C   0  0  0  0  0  0  0  0  0  0  0  0
  -22.9352   -3.4794    0.0000 O   0  0  0  0  0  0  0  0  0  0  0  0
  -23.9612   -1.8466    0.0000 C   0  0  0  0  0  0  0  0  0  0  0  0
  -20.0688   -1.0724    0.0000 C   0  0  0  0  0  0  0  0  0  0  0  0
  -19.5034   -2.4617    0.0000 O   0  0  0  0  0  0  0  0  0  0  0  0
  -19.1483    0.1119    0.0000 N   0  0  0  0  0  0  0  0  0  0  0  0
  -17.6624   -0.0931    0.0000 C   0  0  0  0  0  0  0  0  0  0  0  0
  -17.7185    1.4058    0.0000 C   0  0  0  0  0  0  0  0  0  0  0  0
  -19.0446    2.1067    0.0000 C   0  0  0  0  0  0  0  0  0  0  0  0
  -19.1007    3.6057    0.0000 C   0  0  0  0  0  0  0  0  0  0  0  0
  -20.4269    4.3066    0.0000 N   0  0  0  0  0  0  0  0  0  0  0  0
  -20.4830    5.8055    0.0000 C   0  0  0  0  0  0  0  0  0  0  0  0
  -21.8092    6.5064    0.0000 N   0  0  0  0  0  0  0  0  0  0  0  0
  -19.2129    6.6036    0.0000 N   0  0  0  0  0  0  0  0  0  0  0  0
  -16.3362   -0.7940    0.0000 C   0  0  0  0  0  0  0  0  0  0  0  0
  -15.0661    0.0040    0.0000 O   0  0  0  0  0  0  0  0  0  0  0  0
  -16.2801   -2.2930    0.0000 N   0  0  0  0  0  0  0  0  0  0  0  0
  -14.9539   -2.9939    0.0000 C   0  0  0  0  0  0  0  0  0  0  0  0
  -15.8745   -4.1782    0.0000 C   0  0  0  0  0  0  0  0  0  0  0  0
  -17.3604   -3.9731    0.0000 C   0  0  0  0  0  0  0  0  0  0  0  0
  -18.2809   -5.1574    0.0000 C   0  0  0  0  0  0  0  0  0  0  0  0
  -19.7668   -4.9524    0.0000 N   0  0  0  0  0  0  0  0  0  0  0  0
  -17.7155   -6.5468    0.0000 O   0  0  0  0  0  0  0  0  0  0  0  0
  -13.4680   -3.1989    0.0000 C   0  0  0  0  0  0  0  0  0  0  0  0
  -13.0762   -4.6468    0.0000 O   0  0  0  0  0  0  0  0  0  0  0  0
  -12.5475   -2.0146    0.0000 N   0  0  0  0  0  0  0  0  0  0  0  0
  -11.0615   -2.2197    0.0000 C   0  0  0  0  0  0  0  0  0  0  0  0
  -10.2321   -3.4695    0.0000 C   0  0  0  0  0  0  0  0  0  0  0  0
   -9.0711   -4.4192    0.0000 C   0  0  0  0  0  0  0  0  0  0  0  0
   -7.6817   -4.9846    0.0000 C   0  0  0  0  0  0  0  0  0  0  0  0
   -6.1874   -5.1153    0.0000 C   0  0  0  0  0  0  0  0  0  0  0  0
  -12.0085   -3.3830    0.0000 C   0  0  0  0  0  0  0  0  0  0  0  0
  -11.4858   -0.7809    0.0000 C   0  0  0  0  0  0  0  0  0  0  0  0
  -12.9856   -0.8033    0.0000 O   0  0  0  0  0  0  0  0  0  0  0  0
  -11.4671    0.7190    0.0000 N   0  0  0  0  0  0  0  0  0  0  0  0
  -11.0071    2.1467    0.0000 C   0  0  0  0  0  0  0  0  0  0  0  0
  -12.4977    1.9788    0.0000 C   0  0  0  0  0  0  0  0  0  0  0  0
  -13.3884    3.1857    0.0000 C   0  0  0  0  0  0  0  0  0  0  0  0
  -14.8790    3.0177    0.0000 C   0  0  0  0  0  0  0  0  0  0  0  0
  -15.7697    4.2246    0.0000 N   0  0  0  0  0  0  0  0  0  0  0  0
  -17.2603    4.0567    0.0000 C   0  0  0  0  0  0  0  0  0  0  0  0
  -17.8325    5.4432    0.0000 N   0  0  0  0  0  0  0  0  0  0  0  0
  -17.5096    2.5775    0.0000 N   0  0  0  0  0  0  0  0  0  0  0  0
  -10.1468    3.3755    0.0000 C   0  0  0  0  0  0  0  0  0  0  0  0
  -11.2335    4.4093    0.0000 O   0  0  0  0  0  0  0  0  0  0  0  0
   -8.9624    4.2960    0.0000 N   0  0  0  0  0  0  0  0  0  0  0  0
   -7.5594    4.8266    0.0000 C   0  0  0  0  0  0  0  0  0  0  0  0
   -8.6201    5.8872    0.0000 C   0  0  0  0  0  0  0  0  0  0  0  0
   -8.2318    7.3361    0.0000 C   0  0  0  0  0  0  0  0  0  0  0  0
   -9.2925    8.3968    0.0000 C   0  0  0  0  0  0  0  0  0  0  0  0
   -8.9043    9.8457    0.0000 N   0  0  0  0  0  0  0  0  0  0  0  0
   -9.9649   10.9063    0.0000 C   0  0  0  0  0  0  0  0  0  0  0  0
   -9.5767   12.3552    0.0000 N   0  0  0  0  0  0  0  0  0  0  0  0
  -11.4138   10.5181    0.0000 N   0  0  0  0  0  0  0  0  0  0  0  0
   -6.0623    4.9200    0.0000 C   0  0  0  0  0  0  0  0  0  0  0  0
   -6.1147    6.4191    0.0000 O   0  0  0  0  0  0  0  0  0  0  0  0
   -4.6042    4.5680    0.0000 N   0  0  0  0  0  0  0  0  0  0  0  0
   -3.3146    3.8019    0.0000 C   0  0  0  0  0  0  0  0  0  0  0  0
   -3.1467    5.2925    0.0000 C   0  0  0  0  0  0  0  0  0  0  0  0
   -4.3536    6.1832    0.0000 C   0  0  0  0  0  0  0  0  0  0  0  0
   -4.1856    7.6738    0.0000 C   0  0  0  0  0  0  0  0  0  0  0  0
   -5.3925    8.5645    0.0000 N   0  0  0  0  0  0  0  0  0  0  0  0
   -2.8108    8.2736    0.0000 O   0  0  0  0  0  0  0  0  0  0  0  0
   -2.3081    2.6897    0.0000 C   0  0  0  0  0  0  0  0  0  0  0  0
   -1.5942    4.0089    0.0000 O   0  0  0  0  0  0  0  0  0  0  0  0
   -1.6742    1.3302    0.0000 N   0  0  0  0  0  0  0  0  0  0  0  0
   -1.4692   -0.1557    0.0000 C   0  0  0  0  0  0  0  0  0  0  0  0
   -1.7112   -1.6360    0.0000 C   0  0  0  0  0  0  0  0  0  0  0  0
   -2.3788   -2.9793    0.0000 C   0  0  0  0  0  0  0  0  0  0  0  0
   -3.4127   -4.0661    0.0000 C   0  0  0  0  0  0  0  0  0  0  0  0
   -4.7210   -4.7998    0.0000 C   0  0  0  0  0  0  0  0  0  0  0  0
   -0.6223    1.1946    0.0000 C   0  0  0  0  0  0  0  0  0  0  0  0
   -0.2209    2.5012    0.0000 C   0  0  0  0  0  0  0  0  0  0  0  0
    0.4206    3.7083    0.0000 C   0  0  0  0  0  0  0  0  0  0  0  0
    1.2789    4.7722    0.0000 C   0  0  0  0  0  0  0  0  0  0  0  0
   -0.6562   -1.5267    0.0000 C   0  0  0  0  0  0  0  0  0  0  0  0
   -2.8215   -1.9161    0.0000 O   0  0  0  0  0  0  0  0  0  0  0  0
   -0.2875   -2.8429    0.0000 N   0  0  0  0  0  0  0  0  0  0  0  0
    0.3237   -4.0656    0.0000 C   0  0  0  0  0  0  0  0  0  0  0  0
   -0.9314   -5.7829    0.0000 C   0  0  0  0  0  0  0  0  0  0  0  0
   -0.0963   -7.0290    0.0000 C   0  0  0  0  0  0  0  0  0  0  0  0
   -0.7578   -8.3752    0.0000 C   0  0  0  0  0  0  0  0  0  0  0  0
    0.0773   -9.6212    0.0000 N   0  0  0  0  0  0  0  0  0  0  0  0
   -0.5842  -10.9675    0.0000 C   0  0  0  0  0  0  0  0  0  0  0  0
   -0.0754  -12.3785    0.0000 N   0  0  0  0  0  0  0  0  0  0  0  0
   -2.0809  -11.0677    0.0000 N   0  0  0  0  0  0  0  0  0  0  0  0
    1.1552   -5.1505    0.0000 C   0  0  0  0  0  0  0  0  0  0  0  0
    0.2818   -6.2880    0.0000 O   0  0  0  0  0  0  0  0  0  0  0  0
    2.1770   -6.0585    0.0000 N   0  0  0  0  0  0  0  0  0  0  0  0
    3.3522   -6.7566    0.0000 C   0  0  0  0  0  0  0  0  0  0  0  0
    3.2248   -8.8799    0.0000 C   0  0  0  0  0  0  0  0  0  0  0  0
    2.0199   -9.7734    0.0000 C   0  0  0  0  0  0  0  0  0  0  0  0
    2.1912  -11.2635    0.0000 C   0  0  0  0  0  0  0  0  0  0  0  0
    0.9864  -12.1570    0.0000 N   0  0  0  0  0  0  0  0  0  0  0  0
    1.1577  -13.6472    0.0000 C   0  0  0  0  0  0  0  0  0  0  0  0
   -0.0472  -14.5407    0.0000 N   0  0  0  0  0  0  0  0  0  0  0  0
    2.5339  -14.2439    0.0000 N   0  0  0  0  0  0  0  0  0  0  0  0
    4.6382   -7.2198    0.0000 C   0  0  0  0  0  0  0  0  0  0  0  0
    4.2729   -9.3856    0.0000 O   0  0  0  0  0  0  0  0  0  0  0  0
    5.9887   -7.4312    0.0000 N   0  0  0  0  0  0  0  0  0  0  0  0
    7.3548   -7.3831    0.0000 C   0  0  0  0  0  0  0  0  0  0  0  0
    8.3955   -9.2382    0.0000 C   0  0  0  0  0  0  0  0  0  0  0  0
    7.8650  -10.6412    0.0000 C   0  0  0  0  0  0  0  0  0  0  0  0
    8.8148  -11.8022    0.0000 C   0  0  0  0  0  0  0  0  0  0  0  0
    8.2842  -13.2053    0.0000 N   0  0  0  0  0  0  0  0  0  0  0  0
    9.2340  -14.3663    0.0000 C   0  0  0  0  0  0  0  0  0  0  0  0
    8.7034  -15.7693    0.0000 N   0  0  0  0  0  0  0  0  0  0  0  0
   10.7143  -14.1242    0.0000 N   0  0  0  0  0  0  0  0  0  0  0  0
    8.6871   -7.0775    0.0000 C   0  0  0  0  0  0  0  0  0  0  0  0
    9.5507   -9.0970    0.0000 O   0  0  0  0  0  0  0  0  0  0  0  0
    9.9375   -6.5252    0.0000 N   0  0  0  0  0  0  0  0  0  0  0  0
   11.0607   -5.7462    0.0000 C   0  0  0  0  0  0  0  0  0  0  0  0
   12.9392   -6.7441    0.0000 C   0  0  0  0  0  0  0  0  0  0  0  0
   13.2514   -8.2113    0.0000 C   0  0  0  0  0  0  0  0  0  0  0  0
   12.2479   -9.3262    0.0000 C   0  0  0  0  0  0  0  0  0  0  0  0
   12.9982  -10.6251    0.0000 N   0  0  0  0  0  0  0  0  0  0  0  0
   14.4654  -10.3129    0.0000 C   0  0  0  0  0  0  0  0  0  0  0  0
   15.6791  -11.1943    0.0000 C   0  0  0  0  0  0  0  0  0  0  0  0
   17.0493  -10.5839    0.0000 C   0  0  0  0  0  0  0  0  0  0  0  0
   17.2058   -9.0920    0.0000 C   0  0  0  0  0  0  0  0  0  0  0  0
   15.9920   -8.2106    0.0000 C   0  0  0  0  0  0  0  0  0  0  0  0
   14.6218   -8.8211    0.0000 C   0  0  0  0  0  0  0  0  0  0  0  0
   12.0163   -4.7688    0.0000 C   0  0  0  0  0  0  0  0  0  0  0  0
   13.8346   -6.0008    0.0000 O   0  0  0  0  0  0  0  0  0  0  0  0
   12.7696   -3.6281    0.0000 N   0  0  0  0  0  0  0  0  0  0  0  0
   13.2934   -2.3656    0.0000 C   0  0  0  0  0  0  0  0  0  0  0  0
   15.4131   -2.1895    0.0000 C   0  0  0  0  0  0  0  0  0  0  0  0
   16.4690   -3.2549    0.0000 C   0  0  0  0  0  0  0  0  0  0  0  0
   17.9196   -2.8733    0.0000 C   0  0  0  0  0  0  0  0  0  0  0  0
   18.9755   -3.9387    0.0000 N   0  0  0  0  0  0  0  0  0  0  0  0
   20.4261   -3.5571    0.0000 C   0  0  0  0  0  0  0  0  0  0  0  0
   21.4819   -4.6225    0.0000 N   0  0  0  0  0  0  0  0  0  0  0  0
   20.8209   -2.1099    0.0000 N   0  0  0  0  0  0  0  0  0  0  0  0
   13.5688   -1.0267    0.0000 C   0  0  0  0  0  0  0  0  0  0  0  0
   15.7646   -1.0801    0.0000 O   0  0  0  0  0  0  0  0  0  0  0  0
   13.5858    0.3401    0.0000 N   0  0  0  0  0  0  0  0  0  0  0  0
   13.3439    1.6855    0.0000 C   0  0  0  0  0  0  0  0  0  0  0  0
   15.0319    2.9797    0.0000 C   0  0  0  0  0  0  0  0  0  0  0  0
   16.4962    2.6542    0.0000 C   0  0  0  0  0  0  0  0  0  0  0  0
   17.5102    3.7595    0.0000 C   0  0  0  0  0  0  0  0  0  0  0  0
   18.9745    3.4340    0.0000 O   0  0  0  0  0  0  0  0  0  0  0  0
   17.0599    5.1903    0.0000 O   0  0  0  0  0  0  0  0  0  0  0  0
   12.8517    2.9607    0.0000 C   0  0  0  0  0  0  0  0  0  0  0  0
   14.7278    4.1029    0.0000 O   0  0  0  0  0  0  0  0  0  0  0  0
   12.1271    4.1198    0.0000 N   0  0  0  0  0  0  0  0  0  0  0  0
   11.1962    5.1207    0.0000 C   0  0  0  0  0  0  0  0  0  0  0  0
   10.0927    5.9275    0.0000 C   0  0  0  0  0  0  0  0  0  0  0  0
    8.8565    6.5107    0.0000 C   0  0  0  0  0  0  0  0  0  0  0  0
    7.5322    6.8495    0.0000 C   0  0  0  0  0  0  0  0  0  0  0  0
    6.1677    6.9316    0.0000 C   0  0  0  0  0  0  0  0  0  0  0  0
    4.8124    6.7539    0.0000 C   0  0  0  0  0  0  0  0  0  0  0  0
    3.5152    6.3230    0.0000 C   0  0  0  0  0  0  0  0  0  0  0  0
    2.3230    5.6544    0.0000 C   0  0  0  0  0  0  0  0  0  0  0  0
   13.0989    6.0715    0.0000 C   0  0  0  0  0  0  0  0  0  0  0  0
   11.9166    7.1221    0.0000 C   0  0  0  0  0  0  0  0  0  0  0  0
   11.0309    8.3327    0.0000 O   0  0  0  0  0  0  0  0  0  0  0  0
   13.3244    7.6399    0.0000 N   0  0  0  0  0  0  0  0  0  0  0  0
   13.5798    9.1180    0.0000 C   0  0  0  0  0  0  0  0  0  0  0  0
   13.3143   10.5943    0.0000 C   0  0  0  0  0  0  0  0  0  0  0  0
   14.4601   11.5624    0.0000 C   0  0  0  0  0  0  0  0  0  0  0  0
   14.1946   13.0387    0.0000 C   0  0  0  0  0  0  0  0  0  0  0  0
   15.2138   14.1393    0.0000 N   0  0  0  0  0  0  0  0  0  0  0  0
   12.7833   13.5470    0.0000 O   0  0  0  0  0  0  0  0  0  0  0  0
   14.9876    9.6358    0.0000 C   0  0  0  0  0  0  0  0  0  0  0  0
   16.1399    8.6756    0.0000 O   0  0  0  0  0  0  0  0  0  0  0  0
   15.2431   11.1139    0.0000 N   0  0  0  0  0  0  0  0  0  0  0  0
   16.6508   11.6317    0.0000 C   0  0  0  0  0  0  0  0  0  0  0  0
   18.1508   11.6369    0.0000 C   0  0  0  0  0  0  0  0  0  0  0  0
   18.9052   10.3404    0.0000 C   0  0  0  0  0  0  0  0  0  0  0  0
   20.4052   10.3455    0.0000 C   0  0  0  0  0  0  0  0  0  0  0  0
   21.1596    9.0490    0.0000 N   0  0  0  0  0  0  0  0  0  0  0  0
   22.6596    9.0541    0.0000 C   0  0  0  0  0  0  0  0  0  0  0  0
   23.4141    7.7576    0.0000 N   0  0  0  0  0  0  0  0  0  0  0  0
   23.4052   10.3557    0.0000 N   0  0  0  0  0  0  0  0  0  0  0  0
   16.9063   13.1098    0.0000 C   0  0  0  0  0  0  0  0  0  0  0  0
   18.2404   13.7954    0.0000 O   0  0  0  0  0  0  0  0  0  0  0  0
   16.1578   13.9071    0.0000 O   0  0  0  0  0  0  0  0  0  0  0  0
  -25.7015    5.7322    0.0000 H   0  0  0  0  0  0  0  0  0  0  0  0
  -26.9155    3.4352    0.0000 H   0  0  0  0  0  0  0  0  0  0  0  0
  -23.8593    4.9601    0.0000 H   0  0  0  0  0  0  0  0  0  0  0  0
  -22.8333    3.3273    0.0000 H   0  0  0  0  0  0  0  0  0  0  0  0
  -25.7491    2.2385    0.0000 H   0  0  0  0  0  0  0  0  0  0  0  0
  -24.7231    0.6057    0.0000 H   0  0  0  0  0  0  0  0  0  0  0  0
  -23.6026   -0.5051    0.0000 H   0  0  0  0  0  0  0  0  0  0  0  0
  -21.0948    0.5604    0.0000 H   0  0  0  0  0  0  0  0  0  0  0  0
  -21.1491   -2.7525    0.0000 H   0  0  0  0  0  0  0  0  0  0  0  0
  -24.3523   -3.9713    0.0000 H   0  0  0  0  0  0  0  0  0  0  0  0
  -25.0192   -2.9099    0.0000 H   0  0  0  0  0  0  0  0  0  0  0  0
  -25.2874   -1.1457    0.0000 H   0  0  0  0  0  0  0  0  0  0  0  0
  -24.0098   -0.9622    0.0000 H   0  0  0  0  0  0  0  0  0  0  0  0
  -19.8788    1.4220    0.0000 H   0  0  0  0  0  0  0  0  0  0  0  0
  -18.1223   -1.5209    0.0000 H   0  0  0  0  0  0  0  0  0  0  0  0
  -16.9267    2.6798    0.0000 H   0  0  0  0  0  0  0  0  0  0  0  0
  -16.2686    1.0212    0.0000 H   0  0  0  0  0  0  0  0  0  0  0  0
  -20.5305    2.3118    0.0000 H   0  0  0  0  0  0  0  0  0  0  0  0
  -19.9858    0.9387    0.0000 H   0  0  0  0  0  0  0  0  0  0  0  0
  -18.8182    5.0788    0.0000 H   0  0  0  0  0  0  0  0  0  0  0  0
  -17.7086    3.0472    0.0000 H   0  0  0  0  0  0  0  0  0  0  0  0
  -21.6970    3.5085    0.0000 H   0  0  0  0  0  0  0  0  0  0  0  0
  -21.8652    8.0054    0.0000 H   0  0  0  0  0  0  0  0  0  0  0  0
  -23.0792    5.7084    0.0000 H   0  0  0  0  0  0  0  0  0  0  0  0
  -19.2690    8.1025    0.0000 H   0  0  0  0  0  0  0  0  0  0  0  0
  -17.7565    6.2444    0.0000 H   0  0  0  0  0  0  0  0  0  0  0  0
  -17.6380   -2.9302    0.0000 H   0  0  0  0  0  0  0  0  0  0  0  0
  -14.4940   -1.5661    0.0000 H   0  0  0  0  0  0  0  0  0  0  0  0
  -16.3344   -5.6059    0.0000 H   0  0  0  0  0  0  0  0  0  0  0  0
  -14.5483   -4.8791    0.0000 H   0  0  0  0  0  0  0  0  0  0  0  0
  -18.6866   -3.2722    0.0000 H   0  0  0  0  0  0  0  0  0  0  0  0
  -17.4427   -2.4754    0.0000 H   0  0  0  0  0  0  0  0  0  0  0  0
  -20.6874   -6.1367    0.0000 H   0  0  0  0  0  0  0  0  0  0  0  0
  -20.3322   -3.5630    0.0000 H   0  0  0  0  0  0  0  0  0  0  0  0
  -13.2780   -0.7045    0.0000 H   0  0  0  0  0  0  0  0  0  0  0  0
  -10.6203   -4.9183    0.0000 H   0  0  0  0  0  0  0  0  0  0  0  0
  -11.6719   -3.8901    0.0000 H   0  0  0  0  0  0  0  0  0  0  0  0
   -9.1981   -5.9138    0.0000 H   0  0  0  0  0  0  0  0  0  0  0  0
  -10.3229   -5.2456    0.0000 H   0  0  0  0  0  0  0  0  0  0  0  0
   -7.1863   -6.4004    0.0000 H   0  0  0  0  0  0  0  0  0  0  0  0
   -8.6344   -6.1433    0.0000 H   0  0  0  0  0  0  0  0  0  0  0  0
   -6.0940   -6.6124    0.0000 H   0  0  0  0  0  0  0  0  0  0  0  0
  -13.3062   -3.7588    0.0000 H   0  0  0  0  0  0  0  0  0  0  0  0
  -11.9821   -4.9648    0.0000 H   0  0  0  0  0  0  0  0  0  0  0  0
  -10.8134   -4.5618    0.0000 H   0  0  0  0  0  0  0  0  0  0  0  0
  -12.9474    0.9610    0.0000 H   0  0  0  0  0  0  0  0  0  0  0  0
  -11.6103    3.5201    0.0000 H   0  0  0  0  0  0  0  0  0  0  0  0
  -13.7495    1.1524    0.0000 H   0  0  0  0  0  0  0  0  0  0  0  0
  -12.4342    0.4801    0.0000 H   0  0  0  0  0  0  0  0  0  0  0  0
  -13.8127    4.6244    0.0000 H   0  0  0  0  0  0  0  0  0  0  0  0
  -12.1366    4.0120    0.0000 H   0  0  0  0  0  0  0  0  0  0  0  0
  -16.2222    2.3501    0.0000 H   0  0  0  0  0  0  0  0  0  0  0  0
  -14.6333    1.5380    0.0000 H   0  0  0  0  0  0  0  0  0  0  0  0
  -15.1699    5.5995    0.0000 H   0  0  0  0  0  0  0  0  0  0  0  0
  -19.6416    5.0956    0.0000 H   0  0  0  0  0  0  0  0  0  0  0  0
  -17.4076    6.5952    0.0000 H   0  0  0  0  0  0  0  0  0  0  0  0
  -19.3114    2.9613    0.0000 H   0  0  0  0  0  0  0  0  0  0  0  0
  -16.6101    1.7418    0.0000 H   0  0  0  0  0  0  0  0  0  0  0  0
   -9.6962    5.6043    0.0000 H   0  0  0  0  0  0  0  0  0  0  0  0
   -6.8618    6.1545    0.0000 H   0  0  0  0  0  0  0  0  0  0  0  0
  -10.0467    6.3507    0.0000 H   0  0  0  0  0  0  0  0  0  0  0  0
   -9.7522    4.9032    0.0000 H   0  0  0  0  0  0  0  0  0  0  0  0
   -7.2281    8.4508    0.0000 H   0  0  0  0  0  0  0  0  0  0  0  0
   -6.8052    6.8726    0.0000 H   0  0  0  0  0  0  0  0  0  0  0  0
  -10.6520    9.0307    0.0000 H   0  0  0  0  0  0  0  0  0  0  0  0
  -10.2962    7.2821    0.0000 H   0  0  0  0  0  0  0  0  0  0  0  0
   -7.4554   10.2339    0.0000 H   0  0  0  0  0  0  0  0  0  0  0  0
  -10.6374   13.4159    0.0000 H   0  0  0  0  0  0  0  0  0  0  0  0
   -8.1278   12.7434    0.0000 H   0  0  0  0  0  0  0  0  0  0  0  0
  -12.4745   11.5787    0.0000 H   0  0  0  0  0  0  0  0  0  0  0  0
  -11.8021    9.0692    0.0000 H   0  0  0  0  0  0  0  0  0  0  0  0
   -4.3918    6.0529    0.0000 H   0  0  0  0  0  0  0  0  0  0  0  0
   -1.9536    4.4325    0.0000 H   0  0  0  0  0  0  0  0  0  0  0  0
   -2.4791    6.6357    0.0000 H   0  0  0  0  0  0  0  0  0  0  0  0
   -1.6669    5.0468    0.0000 H   0  0  0  0  0  0  0  0  0  0  0  0
   -5.7299    6.7796    0.0000 H   0  0  0  0  0  0  0  0  0  0  0  0
   -5.3264    5.0414    0.0000 H   0  0  0  0  0  0  0  0  0  0  0  0
   -5.2246   10.0550    0.0000 H   0  0  0  0  0  0  0  0  0  0  0  0
   -6.6840    7.8015    0.0000 H   0  0  0  0  0  0  0  0  0  0  0  0
   -0.2355    1.7544    0.0000 H   0  0  0  0  0  0  0  0  0  0  0  0
   -0.2623   -1.2478    0.0000 H   0  0  0  0  0  0  0  0  0  0  0  0
   -0.9100   -2.9042    0.0000 H   0  0  0  0  0  0  0  0  0  0  0  0
   -0.9996   -3.5689    0.0000 H   0  0  0  0  0  0  0  0  0  0  0  0
   -2.1664   -4.4642    0.0000 H   0  0  0  0  0  0  0  0  0  0  0  0
   -2.2685   -5.0360    0.0000 H   0  0  0  0  0  0  0  0  0  0  0  0
   -3.2820   -5.5603    0.0000 H   0  0  0  0  0  0  0  0  0  0  0  0
   -4.1904   -6.2028    0.0000 H   0  0  0  0  0  0  0  0  0  0  0  0
   -2.7158    0.8178    0.0000 H   0  0  0  0  0  0  0  0  0  0  0  0
   -2.2632    2.4921    0.0000 H   0  0  0  0  0  0  0  0  0  0  0  0
   -2.3362    3.0741    0.0000 H   0  0  0  0  0  0  0  0  0  0  0  0
   -1.4208    4.1637    0.0000 H   0  0  0  0  0  0  0  0  0  0  0  0
   -1.6081    4.4981    0.0000 H   0  0  0  0  0  0  0  0  0  0  0  0
   -0.7913    5.4564    0.0000 H   0  0  0  0  0  0  0  0  0  0  0  0
   -0.2943    6.3101    0.0000 H   0  0  0  0  0  0  0  0  0  0  0  0
   -2.0534   -4.1008    0.0000 H   0  0  0  0  0  0  0  0  0  0  0  0
   -1.7581   -4.6246    0.0000 H   0  0  0  0  0  0  0  0  0  0  0  0
   -2.1321   -6.6821    0.0000 H   0  0  0  0  0  0  0  0  0  0  0  0
   -2.3792   -5.3906    0.0000 H   0  0  0  0  0  0  0  0  0  0  0  0
    0.9977   -8.0552    0.0000 H   0  0  0  0  0  0  0  0  0  0  0  0
    1.2050   -6.2829    0.0000 H   0  0  0  0  0  0  0  0  0  0  0  0
   -1.8399   -9.4140    0.0000 H   0  0  0  0  0  0  0  0  0  0  0  0
   -2.0676   -7.6442    0.0000 H   0  0  0  0  0  0  0  0  0  0  0  0
    1.5537   -9.8861    0.0000 H   0  0  0  0  0  0  0  0  0  0  0  0
   -0.4106  -13.5597    0.0000 H   0  0  0  0  0  0  0  0  0  0  0  0
    1.7576  -12.5623    0.0000 H   0  0  0  0  0  0  0  0  0  0  0  0
   -2.7424  -12.4139    0.0000 H   0  0  0  0  0  0  0  0  0  0  0  0
   -2.9160   -9.8217    0.0000 H   0  0  0  0  0  0  0  0  0  0  0  0
    0.8786   -7.8345    0.0000 H   0  0  0  0  0  0  0  0  0  0  0  0
    1.7943   -8.2050    0.0000 H   0  0  0  0  0  0  0  0  0  0  0  0
    3.8954  -10.2216    0.0000 H   0  0  0  0  0  0  0  0  0  0  0  0
    4.7233   -8.8130    0.0000 H   0  0  0  0  0  0  0  0  0  0  0  0
    0.7283  -10.5361    0.0000 H   0  0  0  0  0  0  0  0  0  0  0  0
    1.1907   -8.5234    0.0000 H   0  0  0  0  0  0  0  0  0  0  0  0
    2.8619  -12.6053    0.0000 H   0  0  0  0  0  0  0  0  0  0  0  0
    3.6704  -11.0145    0.0000 H   0  0  0  0  0  0  0  0  0  0  0  0
   -0.4933  -11.9110    0.0000 H   0  0  0  0  0  0  0  0  0  0  0  0
    0.1241  -16.0308    0.0000 H   0  0  0  0  0  0  0  0  0  0  0  0
   -1.4234  -13.9439    0.0000 H   0  0  0  0  0  0  0  0  0  0  0  0
    2.7052  -15.7341    0.0000 H   0  0  0  0  0  0  0  0  0  0  0  0
    3.7388  -13.3504    0.0000 H   0  0  0  0  0  0  0  0  0  0  0  0
    5.6748   -9.6051    0.0000 H   0  0  0  0  0  0  0  0  0  0  0  0
    6.6653   -9.3582    0.0000 H   0  0  0  0  0  0  0  0  0  0  0  0
    9.6851  -10.0043    0.0000 H   0  0  0  0  0  0  0  0  0  0  0  0
    9.6200   -8.3718    0.0000 H   0  0  0  0  0  0  0  0  0  0  0  0
    6.8866  -11.7782    0.0000 H   0  0  0  0  0  0  0  0  0  0  0  0
    6.4283  -10.2099    0.0000 H   0  0  0  0  0  0  0  0  0  0  0  0
   10.1044  -12.5684    0.0000 H   0  0  0  0  0  0  0  0  0  0  0  0
    9.9245  -10.7930    0.0000 H   0  0  0  0  0  0  0  0  0  0  0  0
    6.8039  -13.4473    0.0000 H   0  0  0  0  0  0  0  0  0  0  0  0
    9.6532  -16.9303    0.0000 H   0  0  0  0  0  0  0  0  0  0  0  0
    7.2231  -16.0113    0.0000 H   0  0  0  0  0  0  0  0  0  0  0  0
   11.6641  -15.2852    0.0000 H   0  0  0  0  0  0  0  0  0  0  0  0
   11.2449  -12.7212    0.0000 H   0  0  0  0  0  0  0  0  0  0  0  0
   10.8487   -8.5237    0.0000 H   0  0  0  0  0  0  0  0  0  0  0  0
   11.7310   -7.7649    0.0000 H   0  0  0  0  0  0  0  0  0  0  0  0
   14.4335   -6.8745    0.0000 H   0  0  0  0  0  0  0  0  0  0  0  0
   13.5009   -5.3532    0.0000 H   0  0  0  0  0  0  0  0  0  0  0  0
   10.7482   -9.3528    0.0000 H   0  0  0  0  0  0  0  0  0  0  0  0
   12.3885  -11.9955    0.0000 H   0  0  0  0  0  0  0  0  0  0  0  0
   15.5227  -12.6861    0.0000 H   0  0  0  0  0  0  0  0  0  0  0  0
   18.2630  -11.4653    0.0000 H   0  0  0  0  0  0  0  0  0  0  0  0
   18.5759   -8.4816    0.0000 H   0  0  0  0  0  0  0  0  0  0  0  0
   16.1485   -6.7188    0.0000 H   0  0  0  0  0  0  0  0  0  0  0  0
   14.6166   -4.8167    0.0000 H   0  0  0  0  0  0  0  0  0  0  0  0
   14.8035   -3.8132    0.0000 H   0  0  0  0  0  0  0  0  0  0  0  0
   16.6457   -1.3347    0.0000 H   0  0  0  0  0  0  0  0  0  0  0  0
   15.1337   -0.7157    0.0000 H   0  0  0  0  0  0  0  0  0  0  0  0
   17.0967   -4.6172    0.0000 H   0  0  0  0  0  0  0  0  0  0  0  0
   15.4798   -4.3826    0.0000 H   0  0  0  0  0  0  0  0  0  0  0  0
   19.1522   -2.0185    0.0000 H   0  0  0  0  0  0  0  0  0  0  0  0
   17.4626   -1.4446    0.0000 H   0  0  0  0  0  0  0  0  0  0  0  0
   18.5807   -5.3858    0.0000 H   0  0  0  0  0  0  0  0  0  0  0  0
   22.9326   -4.2409    0.0000 H   0  0  0  0  0  0  0  0  0  0  0  0
   21.0871   -6.0696    0.0000 H   0  0  0  0  0  0  0  0  0  0  0  0
   22.2715   -1.7283    0.0000 H   0  0  0  0  0  0  0  0  0  0  0  0
   19.7650   -1.0445    0.0000 H   0  0  0  0  0  0  0  0  0  0  0  0
   15.7822    0.3388    0.0000 H   0  0  0  0  0  0  0  0  0  0  0  0
   15.3969    1.2841    0.0000 H   0  0  0  0  0  0  0  0  0  0  0  0
   15.7713    4.2848    0.0000 H   0  0  0  0  0  0  0  0  0  0  0  0
   14.0001    4.0684    0.0000 H   0  0  0  0  0  0  0  0  0  0  0  0
   17.7608    1.8475    0.0000 H   0  0  0  0  0  0  0  0  0  0  0  0
   16.2737    1.1708    0.0000 H   0  0  0  0  0  0  0  0  0  0  0  0
   13.9755    5.3061    0.0000 H   0  0  0  0  0  0  0  0  0  0  0  0
   10.4213    8.0290    0.0000 H   0  0  0  0  0  0  0  0  0  0  0  0
   11.5742    7.5226    0.0000 H   0  0  0  0  0  0  0  0  0  0  0  0
    8.9626    8.6636    0.0000 H   0  0  0  0  0  0  0  0  0  0  0  0
   10.0093    8.3575    0.0000 H   0  0  0  0  0  0  0  0  0  0  0  0
    7.2290    8.9836    0.0000 H   0  0  0  0  0  0  0  0  0  0  0  0
    8.4730    8.7889    0.0000 H   0  0  0  0  0  0  0  0  0  0  0  0
    5.4661    8.9697    0.0000 H   0  0  0  0  0  0  0  0  0  0  0  0
    6.7245    9.0139    0.0000 H   0  0  0  0  0  0  0  0  0  0  0  0
    3.7378    8.6224    0.0000 H   0  0  0  0  0  0  0  0  0  0  0  0
    4.9650    8.9040    0.0000 H   0  0  0  0  0  0  0  0  0  0  0  0
    1.9940    7.8097    0.0000 H   0  0  0  0  0  0  0  0  0  0  0  0
    3.2582    8.4631    0.0000 H   0  0  0  0  0  0  0  0  0  0  0  0
    1.0693    7.4622    0.0000 H   0  0  0  0  0  0  0  0  0  0  0  0
   13.7903    7.4027    0.0000 H   0  0  0  0  0  0  0  0  0  0  0  0
   14.5962    5.9815    0.0000 H   0  0  0  0  0  0  0  0  0  0  0  0
   13.6258    4.6671    0.0000 H   0  0  0  0  0  0  0  0  0  0  0  0
   14.5852    6.8273    0.0000 H   0  0  0  0  0  0  0  0  0  0  0  0
   12.0798    9.1129    0.0000 H   0  0  0  0  0  0  0  0  0  0  0  0
   12.5599   11.8908    0.0000 H   0  0  0  0  0  0  0  0  0  0  0  0
   11.9065   10.0765    0.0000 H   0  0  0  0  0  0  0  0  0  0  0  0
   15.8679   12.0802    0.0000 H   0  0  0  0  0  0  0  0  0  0  0  0
   15.7350   10.7720    0.0000 H   0  0  0  0  0  0  0  0  0  0  0  0
   15.0749   15.4831    0.0000 H   0  0  0  0  0  0  0  0  0  0  0  0
   16.8610   13.8897    0.0000 H   0  0  0  0  0  0  0  0  0  0  0  0
   14.3573   12.3245    0.0000 H   0  0  0  0  0  0  0  0  0  0  0  0
   16.7344   10.1341    0.0000 H   0  0  0  0  0  0  0  0  0  0  0  0
   19.4850   12.3224    0.0000 H   0  0  0  0  0  0  0  0  0  0  0  0
   18.0673   13.1345    0.0000 H   0  0  0  0  0  0  0  0  0  0  0  0
   19.1707    8.8641    0.0000 H   0  0  0  0  0  0  0  0  0  0  0  0
   17.5711    9.6548    0.0000 H   0  0  0  0  0  0  0  0  0  0  0  0
   21.8130   10.8633    0.0000 H   0  0  0  0  0  0  0  0  0  0  0  0
   20.3217   11.8431    0.0000 H   0  0  0  0  0  0  0  0  0  0  0  0
   20.4141    7.7474    0.0000 H   0  0  0  0  0  0  0  0  0  0  0  0
   24.9140    7.7627    0.0000 H   0  0  0  0  0  0  0  0  0  0  0  0
   22.6685    6.4560    0.0000 H   0  0  0  0  0  0  0  0  0  0  0  0
   24.9052   10.3608    0.0000 H   0  0  0  0  0  0  0  0  0  0  0  0
   22.6508   11.6522    0.0000 H   0  0  0  0  0  0  0  0  0  0  0  0
  1  2  1  0
  2  3  1  0
  3  4  1  0
  4  5  2  0
  4  6  1  0
  6  7  1  0
  7  8  1  0
  8  9  1  0
  8 10  1  0
  7 11  1  0
 11 12  2  0
 11 13  1  0
 13 14  1  0
 14 15  1  0
 15 16  1  0
 16 17  1  0
 17 18  1  0
 18 19  1  0
 19 20  2  3
 19 21  1  0
 14 22  1  0
 22 23  2  0
 22 24  1  0
 24 25  1  0
 25 26  1  0
 26 27  1  0
 27 28  1  0
 28 29  1  0
 28 30  2  0
 25 31  1  0
 31 32  2  0
 31 33  1  0
 34 33  1  6
 34 35  1  0
 35 36  1  0
 36 37  1  0
 37 38  1  0
 34 39  1  0
 34 40  1  0
 40 41  2  0
 40 42  1  0
 42 43  1  0
 43 44  1  0
 44 45  1  0
 45 46  1  0
 46 47  1  0
 47 48  1  0
 48 49  2  3
 48 50  1  0
 43 51  1  0
 51 52  2  0
 51 53  1  0
 53 54  1  0
 54 55  1  0
 55 56  1  0
 56 57  1  0
 57 58  1  0
 58 59  1  0
 59 60  2  3
 59 61  1  0
 54 62  1  0
 62 63  2  0
 62 64  1  0
 64 65  1  0
 65 66  1  0
 66 67  1  0
 67 68  1  0
 68 69  1  0
 68 70  2  0
 65 71  1  0
 71 72  2  0
 71 73  1  0
 73 74  1  0
 74 75  1  0
 75 76  1  0
 76 77  1  0
 77 78  1  0
 74 79  1  0
 79 80  1  0
 80 81  1  0
 81 82  1  0
 74 83  1  0
 83 84  2  0
 83 85  1  0
 85 86  1  0
 86 87  1  0
 87 88  1  0
 88 89  1  0
 89 90  1  0
 90 91  1  0
 91 92  2  3
 91 93  1  0
 86 94  1  0
 94 95  2  0
 94 96  1  0
 96 97  1  0
 97 98  1  0
 98 99  1  0
 99100  1  0
100101  1  0
101102  1  0
102103  2  3
102104  1  0
 97105  1  0
105106  2  0
105107  1  0
107108  1  0
108109  1  0
109110  1  0
110111  1  0
111112  1  0
112113  1  0
113114  2  3
113115  1  0
108116  1  0
116117  2  0
116118  1  0
118119  1  0
119120  1  0
120121  1  0
121122  2  0
122123  1  0
123124  1  0
124125  2  0
125126  1  0
126127  2  0
127128  1  0
128129  2  0
119130  1  0
130131  2  0
130132  1  0
132133  1  0
133134  1  0
134135  1  0
135136  1  0
136137  1  0
137138  1  0
138139  2  3
138140  1  0
133141  1  0
141142  2  0
141143  1  0
143144  1  0
144145  1  0
145146  1  0
146147  1  0
147148  2  0
147149  1  0
144150  1  0
150151  2  0
150152  1  0
152153  1  0
153154  1  0
154155  1  0
155156  1  0
156157  1  0
157158  1  0
158159  1  0
159160  1  0
153161  1  0
153162  1  1
162163  2  0
162164  1  0
164165  1  0
165166  1  0
166167  1  0
167168  1  0
168169  1  0
168170  2  0
165171  1  0
171172  2  0
171173  1  0
173174  1  0
174175  1  0
175176  1  0
176177  1  0
177178  1  0
178179  1  0
179180  2  3
179181  1  0
174182  1  0
182183  2  0
182184  1  0
129121  1  0
129124  1  0
 38 78  2  0
 82160  2  0
  1185  1  0
  1186  1  0
  2187  1  0
  2188  1  0
  3189  1  0
  3190  1  0
  6191  1  0
  7192  1  6
  8193  1  1
  9194  1  0
 10195  1  0
 10196  1  0
 10197  1  0
 13198  1  0
 14199  1  1
 15200  1  0
 15201  1  0
 16202  1  0
 16203  1  0
 17204  1  0
 17205  1  0
 18206  1  0
 20207  1  0
 20208  1  0
 21209  1  0
 21210  1  0
 24211  1  0
 25212  1  6
 26213  1  0
 26214  1  0
 27215  1  0
 27216  1  0
 29217  1  0
 29218  1  0
 33219  1  0
 35220  1  0
 35221  1  0
 36222  1  0
 36223  1  0
 37224  1  0
 37225  1  0
 38226  1  0
 39227  1  0
 39228  1  0
 39229  1  0
 42230  1  0
 43231  1  1
 44232  1  0
 44233  1  0
 45234  1  0
 45235  1  0
 46236  1  0
 46237  1  0
 47238  1  0
 49239  1  0
 49240  1  0
 50241  1  0
 50242  1  0
 53243  1  0
 54244  1  1
 55245  1  0
 55246  1  0
 56247  1  0
 56248  1  0
 57249  1  0
 57250  1  0
 58251  1  0
 60252  1  0
 60253  1  0
 61254  1  0
 61255  1  0
 64256  1  0
 65257  1  1
 66258  1  0
 66259  1  0
 67260  1  0
 67261  1  0
 69262  1  0
 69263  1  0
 73264  1  0
 75265  1  0
 75266  1  0
 76267  1  0
 76268  1  0
 77269  1  0
 77270  1  0
 78271  1  0
 79272  1  0
 79273  1  0
 80274  1  0
 80275  1  0
 81276  1  0
 81277  1  0
 82278  1  0
 85279  1  0
 86280  1  6
 87281  1  0
 87282  1  0
 88283  1  0
 88284  1  0
 89285  1  0
 89286  1  0
 90287  1  0
 92288  1  0
 92289  1  0
 93290  1  0
 93291  1  0
 96292  1  0
 97293  1  6
 98294  1  0
 98295  1  0
 99296  1  0
 99297  1  0
100298  1  0
100299  1  0
101300  1  0
103301  1  0
103302  1  0
104303  1  0
104304  1  0
107305  1  0
108306  1  6
109307  1  0
109308  1  0
110309  1  0
110310  1  0
111311  1  0
111312  1  0
112313  1  0
114314  1  0
114315  1  0
115316  1  0
115317  1  0
118318  1  0
119319  1  6
120320  1  0
120321  1  0
122322  1  0
123323  1  0
125324  1  0
126325  1  0
127326  1  0
128327  1  0
132328  1  0
133329  1  6
134330  1  0
134331  1  0
135332  1  0
135333  1  0
136334  1  0
136335  1  0
137336  1  0
139337  1  0
139338  1  0
140339  1  0
140340  1  0
143341  1  0
144342  1  6
145343  1  0
145344  1  0
146345  1  0
146346  1  0
152347  1  0
154348  1  0
154349  1  0
155350  1  0
155351  1  0
156352  1  0
156353  1  0
157354  1  0
157355  1  0
158356  1  0
158357  1  0
159358  1  0
159359  1  0
160360  1  0
161361  1  0
161362  1  0
161363  1  0
164364  1  0
165365  1  1
166366  1  0
166367  1  0
167368  1  0
167369  1  0
169370  1  0
169371  1  0
173372  1  0
174373  1  6
175374  1  0
175375  1  0
176376  1  0
176377  1  0
177378  1  0
177379  1  0
178380  1  0
180381  1  0
180382  1  0
181383  1  0
181384  1  0
M  CHG  8  20   1  49   1  60   1  92   1 103   1 114   1 139   1 149  -1
M  CHG  2 180   1 184  -1
M  END
