
     RDKit          2D

274276  0  0  0  0  0  0  0  0999 V2000
    6.2267  -11.7867    0.0000 N   0  0  0  0  0  0  0  0  0  0  0  0
    7.7204  -11.9242    0.0000 C   0  0  0  0  0  0  0  0  0  0  0  0
    8.5863  -10.6994    0.0000 C   0  0  0  0  0  0  0  0  0  0  0  0
   10.0800  -10.8370    0.0000 O   0  0  0  0  0  0  0  0  0  0  0  0
   10.9460   -9.6122    0.0000 C   0  0  0  0  0  0  0  0  0  0  0  0
   12.4396   -9.7497    0.0000 C   0  0  0  0  0  0  0  0  0  0  0  0
   13.3056   -8.5249    0.0000 O   0  0  0  0  0  0  0  0  0  0  0  0
   14.7993   -8.6625    0.0000 C   0  0  0  0  0  0  0  0  0  0  0  0
   15.6652   -7.4377    0.0000 C   0  0  0  0  0  0  0  0  0  0  0  0
   15.0900   -6.5077    0.0000 O   0  0  0  0  0  0  0  0  0  0  0  0
   17.1589   -7.5752    0.0000 N   0  0  0  0  0  0  0  0  0  0  0  0
   17.9256   -8.8645    0.0000 C   0  0  0  0  0  0  0  0  0  0  0  0
   19.3887   -8.5337    0.0000 C   0  0  0  0  0  0  0  0  0  0  0  0
   19.5262   -7.0401    0.0000 C   0  0  0  0  0  0  0  0  0  0  0  0
   18.1482   -6.4477    0.0000 C   0  0  0  0  0  0  0  0  0  0  0  0
   16.9234   -5.5817    0.0000 C   0  0  0  0  0  0  0  0  0  0  0  0
   16.2454   -6.0011    0.0000 O   0  0  0  0  0  0  0  0  0  0  0  0
   17.0609   -4.0880    0.0000 N   0  0  0  0  0  0  0  0  0  0  0  0
   15.8361   -3.2221    0.0000 C   0  0  0  0  0  0  0  0  0  0  0  0
   15.1960   -4.5786    0.0000 C   0  0  0  0  0  0  0  0  0  0  0  0
   16.0508   -5.8113    0.0000 C   0  0  0  0  0  0  0  0  0  0  0  0
   15.4106   -7.1678    0.0000 C   0  0  0  0  0  0  0  0  0  0  0  0
   16.4093   -8.2871    0.0000 O   0  0  0  0  0  0  0  0  0  0  0  0
   13.9158   -7.2917    0.0000 O   0  0  0  0  0  0  0  0  0  0  0  0
   14.9814   -1.9894    0.0000 C   0  0  0  0  0  0  0  0  0  0  0  0
   13.6302   -2.6409    0.0000 O   0  0  0  0  0  0  0  0  0  0  0  0
   15.6215   -0.6329    0.0000 N   0  0  0  0  0  0  0  0  0  0  0  0
   14.7667    0.5998    0.0000 C   0  0  0  0  0  0  0  0  0  0  0  0
   13.9947   -0.6863    0.0000 C   0  0  0  0  0  0  0  0  0  0  0  0
   12.8779   -1.6877    0.0000 C   0  0  0  0  0  0  0  0  0  0  0  0
   11.5156   -2.3154    0.0000 C   0  0  0  0  0  0  0  0  0  0  0  0
   10.0288   -2.5137    0.0000 C   0  0  0  0  0  0  0  0  0  0  0  0
   16.2418    0.8719    0.0000 C   0  0  0  0  0  0  0  0  0  0  0  0
   15.1254    2.0563    0.0000 C   0  0  0  0  0  0  0  0  0  0  0  0
   16.6190    1.9187    0.0000 O   0  0  0  0  0  0  0  0  0  0  0  0
   15.0388    3.5538    0.0000 N   0  0  0  0  0  0  0  0  0  0  0  0
   14.5146    4.9592    0.0000 C   0  0  0  0  0  0  0  0  0  0  0  0
   15.2215    6.2822    0.0000 C   0  0  0  0  0  0  0  0  0  0  0  0
   16.7156    6.1483    0.0000 C   0  0  0  0  0  0  0  0  0  0  0  0
   15.4334    7.7671    0.0000 C   0  0  0  0  0  0  0  0  0  0  0  0
   16.8253    8.3262    0.0000 C   0  0  0  0  0  0  0  0  0  0  0  0
   13.5995    6.1477    0.0000 C   0  0  0  0  0  0  0  0  0  0  0  0
   14.4986    7.3483    0.0000 O   0  0  0  0  0  0  0  0  0  0  0  0
   12.3747    7.0137    0.0000 N   0  0  0  0  0  0  0  0  0  0  0  0
   10.9490    7.4801    0.0000 C   0  0  0  0  0  0  0  0  0  0  0  0
   10.3555    8.8577    0.0000 C   0  0  0  0  0  0  0  0  0  0  0  0
   11.2517   10.0605    0.0000 C   0  0  0  0  0  0  0  0  0  0  0  0
   10.6581   11.4381    0.0000 C   0  0  0  0  0  0  0  0  0  0  0  0
   12.5053   10.8843    0.0000 C   0  0  0  0  0  0  0  0  0  0  0  0
    9.4493    7.5057    0.0000 C   0  0  0  0  0  0  0  0  0  0  0  0
    9.2510    8.9925    0.0000 O   0  0  0  0  0  0  0  0  0  0  0  0
    8.0086    7.0880    0.0000 N   0  0  0  0  0  0  0  0  0  0  0  0
    6.7550    6.2642    0.0000 C   0  0  0  0  0  0  0  0  0  0  0  0
    5.3079    6.6591    0.0000 C   0  0  0  0  0  0  0  0  0  0  0  0
    4.9263    8.1097    0.0000 C   0  0  0  0  0  0  0  0  0  0  0  0
    3.4792    8.5045    0.0000 O   0  0  0  0  0  0  0  0  0  0  0  0
    5.9918    9.1655    0.0000 O   0  0  0  0  0  0  0  0  0  0  0  0
    5.8000    5.1076    0.0000 C   0  0  0  0  0  0  0  0  0  0  0  0
    4.5139    5.8796    0.0000 O   0  0  0  0  0  0  0  0  0  0  0  0
    5.2282    3.7208    0.0000 N   0  0  0  0  0  0  0  0  0  0  0  0
    5.0907    2.2271    0.0000 C   0  0  0  0  0  0  0  0  0  0  0  0
    5.3995    0.7593    0.0000 C   0  0  0  0  0  0  0  0  0  0  0  0
    6.1273   -0.5524    0.0000 C   0  0  0  0  0  0  0  0  0  0  0  0
    7.2094   -1.5912    0.0000 C   0  0  0  0  0  0  0  0  0  0  0  0
    8.5495   -2.2649    0.0000 C   0  0  0  0  0  0  0  0  0  0  0  0
    3.7858    2.9668    0.0000 C   0  0  0  0  0  0  0  0  0  0  0  0
    3.8798    1.3419    0.0000 C   0  0  0  0  0  0  0  0  0  0  0  0
    3.6753   -0.1441    0.0000 O   0  0  0  0  0  0  0  0  0  0  0  0
    2.5077    1.9480    0.0000 N   0  0  0  0  0  0  0  0  0  0  0  0
    1.2967    1.0628    0.0000 C   0  0  0  0  0  0  0  0  0  0  0  0
    0.4616   -0.1832    0.0000 C   0  0  0  0  0  0  0  0  0  0  0  0
   -1.0351   -0.0829    0.0000 C   0  0  0  0  0  0  0  0  0  0  0  0
   -1.9959   -1.2348    0.0000 C   0  0  0  0  0  0  0  0  0  0  0  0
   -3.3883   -0.6770    0.0000 N   0  0  0  0  0  0  0  0  0  0  0  0
   -3.2880    0.8197    0.0000 C   0  0  0  0  0  0  0  0  0  0  0  0
   -1.8337    1.1868    0.0000 N   0  0  0  0  0  0  0  0  0  0  0  0
   -0.0754    1.6689    0.0000 C   0  0  0  0  0  0  0  0  0  0  0  0
   -0.2365    3.1602    0.0000 O   0  0  0  0  0  0  0  0  0  0  0  0
   -1.2863    0.7837    0.0000 N   0  0  0  0  0  0  0  0  0  0  0  0
   -2.6584    1.3898    0.0000 C   0  0  0  0  0  0  0  0  0  0  0  0
   -3.7405    2.4286    0.0000 C   0  0  0  0  0  0  0  0  0  0  0  0
   -3.3818    3.8851    0.0000 C   0  0  0  0  0  0  0  0  0  0  0  0
   -3.8694    0.5046    0.0000 C   0  0  0  0  0  0  0  0  0  0  0  0
   -4.0739   -0.9814    0.0000 O   0  0  0  0  0  0  0  0  0  0  0  0
   -5.2415    1.1107    0.0000 N   0  0  0  0  0  0  0  0  0  0  0  0
   -6.4524    0.2254    0.0000 C   0  0  0  0  0  0  0  0  0  0  0  0
   -7.2876   -1.0206    0.0000 C   0  0  0  0  0  0  0  0  0  0  0  0
   -8.7842   -0.9203    0.0000 C   0  0  0  0  0  0  0  0  0  0  0  0
   -9.6194   -2.1663    0.0000 C   0  0  0  0  0  0  0  0  0  0  0  0
  -11.1160   -2.0660    0.0000 N   0  0  0  0  0  0  0  0  0  0  0  0
  -11.9512   -3.3120    0.0000 C   0  0  0  0  0  0  0  0  0  0  0  0
  -13.4244   -3.0301    0.0000 N   0  0  0  0  0  0  0  0  0  0  0  0
  -11.2897   -4.6583    0.0000 N   0  0  0  0  0  0  0  0  0  0  0  0
   -7.8245    0.8315    0.0000 C   0  0  0  0  0  0  0  0  0  0  0  0
   -7.9856    2.3229    0.0000 O   0  0  0  0  0  0  0  0  0  0  0  0
   -9.0354   -0.0537    0.0000 N   0  0  0  0  0  0  0  0  0  0  0  0
  -10.4075    0.5524    0.0000 C   0  0  0  0  0  0  0  0  0  0  0  0
  -11.4896    1.5913    0.0000 C   0  0  0  0  0  0  0  0  0  0  0  0
  -11.1310    3.0478    0.0000 C   0  0  0  0  0  0  0  0  0  0  0  0
  -12.2130    4.0866    0.0000 C   0  0  0  0  0  0  0  0  0  0  0  0
  -11.8544    5.5431    0.0000 N   0  0  0  0  0  0  0  0  0  0  0  0
  -12.9364    6.5819    0.0000 C   0  0  0  0  0  0  0  0  0  0  0  0
  -12.5778    8.0384    0.0000 N   0  0  0  0  0  0  0  0  0  0  0  0
  -14.3771    6.1643    0.0000 N   0  0  0  0  0  0  0  0  0  0  0  0
  -11.6185   -0.3328    0.0000 C   0  0  0  0  0  0  0  0  0  0  0  0
  -11.8230   -1.8188    0.0000 O   0  0  0  0  0  0  0  0  0  0  0  0
  -12.9906    0.2733    0.0000 N   0  0  0  0  0  0  0  0  0  0  0  0
  -14.2015   -0.6119    0.0000 C   0  0  0  0  0  0  0  0  0  0  0  0
  -15.0367   -1.8579    0.0000 C   0  0  0  0  0  0  0  0  0  0  0  0
  -16.5344   -1.9408    0.0000 C   0  0  0  0  0  0  0  0  0  0  0  0
  -15.5736   -0.0058    0.0000 C   0  0  0  0  0  0  0  0  0  0  0  0
  -15.7348    1.4855    0.0000 O   0  0  0  0  0  0  0  0  0  0  0  0
  -16.7846   -0.8910    0.0000 N   0  0  0  0  0  0  0  0  0  0  0  0
  -18.1567   -0.2849    0.0000 C   0  0  0  0  0  0  0  0  0  0  0  0
  -19.2387    0.7539    0.0000 C   0  0  0  0  0  0  0  0  0  0  0  0
  -18.8801    2.2104    0.0000 C   0  0  0  0  0  0  0  0  0  0  0  0
  -19.9621    3.2492    0.0000 S   0  0  0  0  0  0  0  0  0  0  0  0
  -19.6035    4.7057    0.0000 C   0  0  0  0  0  0  0  0  0  0  0  0
  -19.3676   -1.1701    0.0000 C   0  0  0  0  0  0  0  0  0  0  0  0
  -19.2065   -2.6615    0.0000 O   0  0  0  0  0  0  0  0  0  0  0  0
  -20.7397   -0.5640    0.0000 N   0  0  0  0  0  0  0  0  0  0  0  0
  -21.9506   -1.4493    0.0000 C   0  0  0  0  0  0  0  0  0  0  0  0
  -22.7858   -2.6953    0.0000 C   0  0  0  0  0  0  0  0  0  0  0  0
  -24.2824   -2.5950    0.0000 C   0  0  0  0  0  0  0  0  0  0  0  0
  -25.1176   -3.8410    0.0000 C   0  0  0  0  0  0  0  0  0  0  0  0
  -26.6142   -3.7407    0.0000 N   0  0  0  0  0  0  0  0  0  0  0  0
  -27.4494   -4.9867    0.0000 C   0  0  0  0  0  0  0  0  0  0  0  0
  -28.9460   -4.8865    0.0000 N   0  0  0  0  0  0  0  0  0  0  0  0
  -26.7879   -6.3330    0.0000 N   0  0  0  0  0  0  0  0  0  0  0  0
  -23.3227   -0.8432    0.0000 C   0  0  0  0  0  0  0  0  0  0  0  0
  -24.6326   -1.5742    0.0000 O   0  0  0  0  0  0  0  0  0  0  0  0
  -23.4839    0.6482    0.0000 O   0  0  0  0  0  0  0  0  0  0  0  0
    5.3607  -13.0115    0.0000 H   0  0  0  0  0  0  0  0  0  0  0  0
    5.5990  -10.4243    0.0000 H   0  0  0  0  0  0  0  0  0  0  0  0
    7.3255  -13.3713    0.0000 H   0  0  0  0  0  0  0  0  0  0  0  0
    9.0769  -12.5643    0.0000 H   0  0  0  0  0  0  0  0  0  0  0  0
    7.2298  -10.0593    0.0000 H   0  0  0  0  0  0  0  0  0  0  0  0
    8.8018   -9.2150    0.0000 H   0  0  0  0  0  0  0  0  0  0  0  0
    9.6775   -8.8115    0.0000 H   0  0  0  0  0  0  0  0  0  0  0  0
   11.3408   -8.1651    0.0000 H   0  0  0  0  0  0  0  0  0  0  0  0
   12.0448  -11.1968    0.0000 H   0  0  0  0  0  0  0  0  0  0  0  0
   13.7081  -10.5504    0.0000 H   0  0  0  0  0  0  0  0  0  0  0  0
   14.5838  -10.1469    0.0000 H   0  0  0  0  0  0  0  0  0  0  0  0
   15.9606   -9.6118    0.0000 H   0  0  0  0  0  0  0  0  0  0  0  0
   18.4075  -10.2850    0.0000 H   0  0  0  0  0  0  0  0  0  0  0  0
   16.6499   -9.6536    0.0000 H   0  0  0  0  0  0  0  0  0  0  0  0
   20.8886   -8.5144    0.0000 H   0  0  0  0  0  0  0  0  0  0  0  0
   19.5647  -10.0234    0.0000 H   0  0  0  0  0  0  0  0  0  0  0  0
   19.9713   -5.6076    0.0000 H   0  0  0  0  0  0  0  0  0  0  0  0
   20.9974   -7.3330    0.0000 H   0  0  0  0  0  0  0  0  0  0  0  0
   18.8813   -5.1391    0.0000 H   0  0  0  0  0  0  0  0  0  0  0  0
   18.4233   -3.4603    0.0000 H   0  0  0  0  0  0  0  0  0  0  0  0
   16.9016   -2.1663    0.0000 H   0  0  0  0  0  0  0  0  0  0  0  0
   14.1305   -5.6344    0.0000 H   0  0  0  0  0  0  0  0  0  0  0  0
   13.9712   -3.7127    0.0000 H   0  0  0  0  0  0  0  0  0  0  0  0
   17.0296   -6.9479    0.0000 H   0  0  0  0  0  0  0  0  0  0  0  0
   17.3401   -5.0446    0.0000 H   0  0  0  0  0  0  0  0  0  0  0  0
   17.1203   -0.6921    0.0000 H   0  0  0  0  0  0  0  0  0  0  0  0
   15.3980   -1.2164    0.0000 H   0  0  0  0  0  0  0  0  0  0  0  0
   14.2705   -2.1607    0.0000 H   0  0  0  0  0  0  0  0  0  0  0  0
   13.8048   -2.8671    0.0000 H   0  0  0  0  0  0  0  0  0  0  0  0
   13.0725   -3.1750    0.0000 H   0  0  0  0  0  0  0  0  0  0  0  0
   12.5197   -3.4297    0.0000 H   0  0  0  0  0  0  0  0  0  0  0  0
   11.0848   -3.7522    0.0000 H   0  0  0  0  0  0  0  0  0  0  0  0
   10.0032   -4.0135    0.0000 H   0  0  0  0  0  0  0  0  0  0  0  0
   17.3470   -0.1424    0.0000 H   0  0  0  0  0  0  0  0  0  0  0  0
   17.5349    1.6322    0.0000 H   0  0  0  0  0  0  0  0  0  0  0  0
   16.0733    2.3624    0.0000 H   0  0  0  0  0  0  0  0  0  0  0  0
   16.5066    3.8626    0.0000 H   0  0  0  0  0  0  0  0  0  0  0  0
   15.9879    4.6772    0.0000 H   0  0  0  0  0  0  0  0  0  0  0  0
   13.9512    7.0797    0.0000 H   0  0  0  0  0  0  0  0  0  0  0  0
   17.6059    7.5563    0.0000 H   0  0  0  0  0  0  0  0  0  0  0  0
   18.1464    5.8649    0.0000 H   0  0  0  0  0  0  0  0  0  0  0  0
   16.6915    4.8317    0.0000 H   0  0  0  0  0  0  0  0  0  0  0  0
   15.1245    9.2350    0.0000 H   0  0  0  0  0  0  0  0  0  0  0  0
   13.9394    7.9010    0.0000 H   0  0  0  0  0  0  0  0  0  0  0  0
   17.0371    9.8111    0.0000 H   0  0  0  0  0  0  0  0  0  0  0  0
   18.3245    8.3754    0.0000 H   0  0  0  0  0  0  0  0  0  0  0  0
   17.4801    6.9767    0.0000 H   0  0  0  0  0  0  0  0  0  0  0  0
   13.0484    8.3538    0.0000 H   0  0  0  0  0  0  0  0  0  0  0  0
   12.0880    8.4562    0.0000 H   0  0  0  0  0  0  0  0  0  0  0  0
    9.2012    9.8156    0.0000 H   0  0  0  0  0  0  0  0  0  0  0  0
    8.9398    8.3617    0.0000 H   0  0  0  0  0  0  0  0  0  0  0  0
   12.4060    9.1026    0.0000 H   0  0  0  0  0  0  0  0  0  0  0  0
   11.4011   12.7412    0.0000 H   0  0  0  0  0  0  0  0  0  0  0  0
    9.6292   12.5296    0.0000 H   0  0  0  0  0  0  0  0  0  0  0  0
    9.3135   10.7733    0.0000 H   0  0  0  0  0  0  0  0  0  0  0  0
   12.6018   12.3812    0.0000 H   0  0  0  0  0  0  0  0  0  0  0  0
   13.9650   11.2296    0.0000 H   0  0  0  0  0  0  0  0  0  0  0  0
   13.0988    9.5067    0.0000 H   0  0  0  0  0  0  0  0  0  0  0  0
    7.3809    8.4503    0.0000 H   0  0  0  0  0  0  0  0  0  0  0  0
    6.5197    7.7457    0.0000 H   0  0  0  0  0  0  0  0  0  0  0  0
    3.8130    6.5352    0.0000 H   0  0  0  0  0  0  0  0  0  0  0  0
    4.8130    5.2431    0.0000 H   0  0  0  0  0  0  0  0  0  0  0  0
    3.7718    4.0794    0.0000 H   0  0  0  0  0  0  0  0  0  0  0  0
    4.5033   -0.4436    0.0000 H   0  0  0  0  0  0  0  0  0  0  0  0
    3.9001    0.7174    0.0000 H   0  0  0  0  0  0  0  0  0  0  0  0
    5.4569   -1.8942    0.0000 H   0  0  0  0  0  0  0  0  0  0  0  0
    4.7068   -1.0343    0.0000 H   0  0  0  0  0  0  0  0  0  0  0  0
    7.1464   -3.0899    0.0000 H   0  0  0  0  0  0  0  0  0  0  0  0
    5.8960   -2.3157    0.0000 H   0  0  0  0  0  0  0  0  0  0  0  0
    8.0831   -3.6905    0.0000 H   0  0  0  0  0  0  0  0  0  0  0  0
    2.3472    2.5421    0.0000 H   0  0  0  0  0  0  0  0  0  0  0  0
    2.9589    4.2184    0.0000 H   0  0  0  0  0  0  0  0  0  0  0  0
    4.4326    4.3202    0.0000 H   0  0  0  0  0  0  0  0  0  0  0  0
    2.1659    3.4086    0.0000 H   0  0  0  0  0  0  0  0  0  0  0  0
    2.3788    0.0240    0.0000 H   0  0  0  0  0  0  0  0  0  0  0  0
    0.1029   -1.6397    0.0000 H   0  0  0  0  0  0  0  0  0  0  0  0
    1.8337   -0.7893    0.0000 H   0  0  0  0  0  0  0  0  0  0  0  0
   -1.6288   -2.6892    0.0000 H   0  0  0  0  0  0  0  0  0  0  0  0
   -4.6581   -1.4756    0.0000 H   0  0  0  0  0  0  0  0  0  0  0  0
   -4.5485    1.6329    0.0000 H   0  0  0  0  0  0  0  0  0  0  0  0
   -1.4908   -0.7023    0.0000 H   0  0  0  0  0  0  0  0  0  0  0  0
   -1.6776    2.5247    0.0000 H   0  0  0  0  0  0  0  0  0  0  0  0
   -5.0284    3.1974    0.0000 H   0  0  0  0  0  0  0  0  0  0  0  0
   -4.9667    1.5648    0.0000 H   0  0  0  0  0  0  0  0  0  0  0  0
   -4.4639    4.9239    0.0000 H   0  0  0  0  0  0  0  0  0  0  0  0
   -2.5467    5.1311    0.0000 H   0  0  0  0  0  0  0  0  0  0  0  0
   -1.9461    3.4508    0.0000 H   0  0  0  0  0  0  0  0  0  0  0  0
   -5.5832    2.5712    0.0000 H   0  0  0  0  0  0  0  0  0  0  0  0
   -5.3704   -0.8134    0.0000 H   0  0  0  0  0  0  0  0  0  0  0  0
   -7.4660   -2.5099    0.0000 H   0  0  0  0  0  0  0  0  0  0  0  0
   -5.9155   -1.6267    0.0000 H   0  0  0  0  0  0  0  0  0  0  0  0
  -10.1563   -0.3142    0.0000 H   0  0  0  0  0  0  0  0  0  0  0  0
   -9.1515    0.5340    0.0000 H   0  0  0  0  0  0  0  0  0  0  0  0
   -9.9780   -3.6228    0.0000 H   0  0  0  0  0  0  0  0  0  0  0  0
   -8.3314   -2.9351    0.0000 H   0  0  0  0  0  0  0  0  0  0  0  0
  -12.0836   -0.9198    0.0000 H   0  0  0  0  0  0  0  0  0  0  0  0
  -14.2830   -4.4578    0.0000 H   0  0  0  0  0  0  0  0  0  0  0  0
  -13.9622   -1.7907    0.0000 H   0  0  0  0  0  0  0  0  0  0  0  0
  -12.1248   -5.9043    0.0000 H   0  0  0  0  0  0  0  0  0  0  0  0
   -9.7930   -4.7586    0.0000 H   0  0  0  0  0  0  0  0  0  0  0  0
   -9.2399   -1.5397    0.0000 H   0  0  0  0  0  0  0  0  0  0  0  0
   -9.4267    1.6873    0.0000 H   0  0  0  0  0  0  0  0  0  0  0  0
  -12.8617    2.1974    0.0000 H   0  0  0  0  0  0  0  0  0  0  0  0
  -12.6014    0.5844    0.0000 H   0  0  0  0  0  0  0  0  0  0  0  0
  -10.2958    4.2938    0.0000 H   0  0  0  0  0  0  0  0  0  0  0  0
   -9.6952    2.6134    0.0000 H   0  0  0  0  0  0  0  0  0  0  0  0
  -13.5851    4.6927    0.0000 H   0  0  0  0  0  0  0  0  0  0  0  0
  -13.1938    2.9517    0.0000 H   0  0  0  0  0  0  0  0  0  0  0  0
  -10.4137    5.9607    0.0000 H   0  0  0  0  0  0  0  0  0  0  0  0
  -13.6598    9.0772    0.0000 H   0  0  0  0  0  0  0  0  0  0  0  0
  -11.1371    8.4561    0.0000 H   0  0  0  0  0  0  0  0  0  0  0  0
  -15.4591    7.2031    0.0000 H   0  0  0  0  0  0  0  0  0  0  0  0
  -14.7357    4.7078    0.0000 H   0  0  0  0  0  0  0  0  0  0  0  0
  -13.3323    1.7339    0.0000 H   0  0  0  0  0  0  0  0  0  0  0  0
  -13.1195   -1.6507    0.0000 H   0  0  0  0  0  0  0  0  0  0  0  0
  -15.3953   -3.3144    0.0000 H   0  0  0  0  0  0  0  0  0  0  0  0
  -13.5587   -2.1140    0.0000 H   0  0  0  0  0  0  0  0  0  0  0  0
  -17.3685   -3.0036    0.0000 H   0  0  0  0  0  0  0  0  0  0  0  0
  -17.9054   -1.1515    0.0000 H   0  0  0  0  0  0  0  0  0  0  0  0
  -16.9006   -0.3033    0.0000 H   0  0  0  0  0  0  0  0  0  0  0  0
  -16.8064   -2.3909    0.0000 H   0  0  0  0  0  0  0  0  0  0  0  0
  -17.1758    0.8500    0.0000 H   0  0  0  0  0  0  0  0  0  0  0  0
  -20.5267    1.5227    0.0000 H   0  0  0  0  0  0  0  0  0  0  0  0
  -20.3505   -0.2530    0.0000 H   0  0  0  0  0  0  0  0  0  0  0  0
  -17.8993    3.3453    0.0000 H   0  0  0  0  0  0  0  0  0  0  0  0
  -17.4443    1.7761    0.0000 H   0  0  0  0  0  0  0  0  0  0  0  0
  -20.6855    5.7446    0.0000 H   0  0  0  0  0  0  0  0  0  0  0  0
  -18.7683    5.9517    0.0000 H   0  0  0  0  0  0  0  0  0  0  0  0
  -18.1677    4.2714    0.0000 H   0  0  0  0  0  0  0  0  0  0  0  0
  -21.0814    0.8965    0.0000 H   0  0  0  0  0  0  0  0  0  0  0  0
  -20.8686   -2.4881    0.0000 H   0  0  0  0  0  0  0  0  0  0  0  0
  -22.9642   -4.1846    0.0000 H   0  0  0  0  0  0  0  0  0  0  0  0
  -21.4137   -3.3014    0.0000 H   0  0  0  0  0  0  0  0  0  0  0  0
  -25.6545   -1.9889    0.0000 H   0  0  0  0  0  0  0  0  0  0  0  0
  -24.4697   -1.1067    0.0000 H   0  0  0  0  0  0  0  0  0  0  0  0
  -25.4762   -5.2975    0.0000 H   0  0  0  0  0  0  0  0  0  0  0  0
  -23.8296   -4.6098    0.0000 H   0  0  0  0  0  0  0  0  0  0  0  0
  -27.2757   -2.3945    0.0000 H   0  0  0  0  0  0  0  0  0  0  0  0
  -29.7812   -6.1325    0.0000 H   0  0  0  0  0  0  0  0  0  0  0  0
  -29.6075   -3.5402    0.0000 H   0  0  0  0  0  0  0  0  0  0  0  0
  -27.6231   -7.5790    0.0000 H   0  0  0  0  0  0  0  0  0  0  0  0
  -25.2913   -6.4333    0.0000 H   0  0  0  0  0  0  0  0  0  0  0  0
  1  2  1  0
  2  3  1  0
  3  4  1  0
  4  5  1  0
  5  6  1  0
  6  7  1  0
  7  8  1  0
  8  9  1  0
  9 10  2  0
  9 11  1  0
 11 12  1  0
 12 13  1  0
 13 14  1  0
 14 15  1  0
 15 16  1  0
 16 17  2  0
 16 18  1  0
 18 19  1  0
 19 20  1  0
 20 21  1  0
 21 22  1  0
 22 23  2  0
 22 24  1  0
 19 25  1  0
 25 26  2  0
 25 27  1  0
 28 27  1  1
 28 29  1  0
 29 30  1  0
 30 31  1  0
 31 32  1  0
 28 33  1  0
 28 34  1  0
 34 35  2  0
 34 36  1  0
 36 37  1  0
 37 38  1  0
 38 39  1  0
 38 40  1  0
 40 41  1  0
 37 42  1  0
 42 43  2  0
 42 44  1  0
 44 45  1  0
 45 46  1  0
 46 47  1  0
 47 48  1  0
 47 49  1  0
 45 50  1  0
 50 51  2  0
 50 52  1  0
 52 53  1  0
 53 54  1  0
 54 55  1  0
 55 56  2  0
 55 57  1  0
 53 58  1  0
 58 59  2  0
 58 60  1  0
 60 61  1  0
 61 62  1  0
 62 63  1  0
 63 64  1  0
 64 65  1  0
 61 66  1  0
 61 67  1  1
 67 68  2  0
 67 69  1  0
 69 70  1  0
 70 71  1  0
 71 72  1  0
 72 73  2  0
 73 74  1  0
 74 75  1  0
 75 76  2  0
 70 77  1  0
 77 78  2  0
 77 79  1  0
 79 80  1  0
 80 81  1  0
 81 82  1  0
 80 83  1  0
 83 84  2  0
 83 85  1  0
 85 86  1  0
 86 87  1  0
 87 88  1  0
 88 89  1  0
 89 90  1  0
 90 91  1  0
 91 92  2  3
 91 93  1  0
 86 94  1  0
 94 95  2  0
 94 96  1  0
 96 97  1  0
 97 98  1  0
 98 99  1  0
 99100  1  0
100101  1  0
101102  1  0
102103  2  3
102104  1  0
 97105  1  0
105106  2  0
105107  1  0
107108  1  0
108109  1  0
109110  1  0
108111  1  0
111112  2  0
111113  1  0
113114  1  0
114115  1  0
115116  1  0
116117  1  0
117118  1  0
114119  1  0
119120  2  0
119121  1  0
121122  1  0
122123  1  0
123124  1  0
124125  1  0
125126  1  0
126127  1  0
127128  2  3
127129  1  0
122130  1  0
130131  2  0
130132  1  0
 15 11  1  0
 76 72  1  0
 32 65  2  0
  1133  1  0
  1134  1  0
  2135  1  0
  2136  1  0
  3137  1  0
  3138  1  0
  5139  1  0
  5140  1  0
  6141  1  0
  6142  1  0
  8143  1  0
  8144  1  0
 12145  1  0
 12146  1  0
 13147  1  0
 13148  1  0
 14149  1  0
 14150  1  0
 15151  1  0
 18152  1  0
 19153  1  1
 20154  1  0
 20155  1  0
 21156  1  0
 21157  1  0
 27158  1  0
 29159  1  0
 29160  1  0
 30161  1  0
 30162  1  0
 31163  1  0
 31164  1  0
 32165  1  0
 33166  1  0
 33167  1  0
 33168  1  0
 36169  1  0
 37170  1  6
 38171  1  1
 39172  1  0
 39173  1  0
 39174  1  0
 40175  1  0
 40176  1  0
 41177  1  0
 41178  1  0
 41179  1  0
 44180  1  0
 45181  1  6
 46182  1  0
 46183  1  0
 47184  1  0
 48185  1  0
 48186  1  0
 48187  1  0
 49188  1  0
 49189  1  0
 49190  1  0
 52191  1  0
 53192  1  6
 54193  1  0
 54194  1  0
 60195  1  0
 62196  1  0
 62197  1  0
 63198  1  0
 63199  1  0
 64200  1  0
 64201  1  0
 65202  1  0
 66203  1  0
 66204  1  0
 66205  1  0
 69206  1  0
 70207  1  1
 71208  1  0
 71209  1  0
 73210  1  0
 74211  1  0
 75212  1  0
 79213  1  0
 80214  1  6
 81215  1  0
 81216  1  0
 82217  1  0
 82218  1  0
 82219  1  0
 85220  1  0
 86221  1  1
 87222  1  0
 87223  1  0
 88224  1  0
 88225  1  0
 89226  1  0
 89227  1  0
 90228  1  0
 92229  1  0
 92230  1  0
 93231  1  0
 93232  1  0
 96233  1  0
 97234  1  6
 98235  1  0
 98236  1  0
 99237  1  0
 99238  1  0
100239  1  0
100240  1  0
101241  1  0
103242  1  0
103243  1  0
104244  1  0
104245  1  0
107246  1  0
108247  1  1
109248  1  0
109249  1  0
110250  1  0
110251  1  0
110252  1  0
113253  1  0
114254  1  6
115255  1  0
115256  1  0
116257  1  0
116258  1  0
118259  1  0
118260  1  0
118261  1  0
121262  1  0
122263  1  1
123264  1  0
123265  1  0
124266  1  0
124267  1  0
125268  1  0
125269  1  0
126270  1  0
128271  1  0
128272  1  0
129273  1  0
129274  1  0
M  CHG  6  24  -1  57  -1  92   1 103   1 128   1 132  -1
M  END
