
     RDKit          2D

298304  0  0  0  0  0  0  0  0999 V2000
  -28.4643    0.5775    0.0000 C   0  0  0  0  0  0  0  0  0  0  0  0
  -29.7631   -0.1729    0.0000 N   0  0  0  0  0  0  0  0  0  0  0  0
  -31.0624    0.5766    0.0000 C   0  0  0  0  0  0  0  0  0  0  0  0
  -31.0629    2.0766    0.0000 C   0  0  0  0  0  0  0  0  0  0  0  0
  -32.3622    2.8262    0.0000 C   0  0  0  0  0  0  0  0  0  0  0  0
  -33.6610    2.0758    0.0000 C   0  0  0  0  0  0  0  0  0  0  0  0
  -33.6605    0.5758    0.0000 C   0  0  0  0  0  0  0  0  0  0  0  0
  -32.3612   -0.1738    0.0000 C   0  0  0  0  0  0  0  0  0  0  0  0
  -35.0869    0.1118    0.0000 C   0  0  0  0  0  0  0  0  0  0  0  0
  -35.9690    1.3251    0.0000 O   0  0  0  0  0  0  0  0  0  0  0  0
  -35.0877    2.5389    0.0000 C   0  0  0  0  0  0  0  0  0  0  0  0
  -35.5517    3.9653    0.0000 O   0  0  0  0  0  0  0  0  0  0  0  0
  -36.5540   -0.2005    0.0000 C   0  0  0  0  0  0  0  0  0  0  0  0
  -37.0171   -1.6272    0.0000 C   0  0  0  0  0  0  0  0  0  0  0  0
  -38.4842   -1.9396    0.0000 C   0  0  0  0  0  0  0  0  0  0  0  0
  -39.4883   -0.8252    0.0000 C   0  0  0  0  0  0  0  0  0  0  0  0
  -39.0252    0.6015    0.0000 C   0  0  0  0  0  0  0  0  0  0  0  0
  -37.5581    0.9139    0.0000 C   0  0  0  0  0  0  0  0  0  0  0  0
  -40.9554   -1.1375    0.0000 O   0  0  0  0  0  0  0  0  0  0  0  0
  -36.0131   -2.7416    0.0000 O   0  0  0  0  0  0  0  0  0  0  0  0
  -34.5459   -2.4293    0.0000 C   0  0  0  0  0  0  0  0  0  0  0  0
  -34.0829   -1.0026    0.0000 C   0  0  0  0  0  0  0  0  0  0  0  0
  -32.8318   -1.3560    0.0000 C   0  0  0  0  0  0  0  0  0  0  0  0
  -32.2963   -1.9504    0.0000 C   0  0  0  0  0  0  0  0  0  0  0  0
  -32.5433   -2.7113    0.0000 C   0  0  0  0  0  0  0  0  0  0  0  0
  -33.3258   -2.8779    0.0000 C   0  0  0  0  0  0  0  0  0  0  0  0
  -31.0707   -4.3458    0.0000 O   0  0  0  0  0  0  0  0  0  0  0  0
  -28.4648    2.0775    0.0000 S   0  0  0  0  0  0  0  0  0  0  0  0
  -27.1651   -0.1721    0.0000 N   0  0  0  0  0  0  0  0  0  0  0  0
  -25.8663    0.5783    0.0000 C   0  0  0  0  0  0  0  0  0  0  0  0
  -24.5670   -0.1713    0.0000 C   0  0  0  0  0  0  0  0  0  0  0  0
  -23.2682    0.5791    0.0000 C   0  0  0  0  0  0  0  0  0  0  0  0
  -23.2687    2.0791    0.0000 O   0  0  0  0  0  0  0  0  0  0  0  0
  -21.9689   -0.1704    0.0000 N   0  0  0  0  0  0  0  0  0  0  0  0
  -20.6701    0.5800    0.0000 C   0  0  0  0  0  0  0  0  0  0  0  0
  -19.7063    1.7294    0.0000 C   0  0  0  0  0  0  0  0  0  0  0  0
  -18.2290    1.4694    0.0000 C   0  0  0  0  0  0  0  0  0  0  0  0
  -17.2652    2.6187    0.0000 N   0  0  0  0  0  0  0  0  0  0  0  0
  -17.7830    0.8086    0.0000 O   0  0  0  0  0  0  0  0  0  0  0  0
  -19.3708   -0.1696    0.0000 C   0  0  0  0  0  0  0  0  0  0  0  0
  -19.3703   -1.6696    0.0000 O   0  0  0  0  0  0  0  0  0  0  0  0
  -18.0720    0.5808    0.0000 N   0  0  0  0  0  0  0  0  0  0  0  0
  -16.7727   -0.1688    0.0000 C   0  0  0  0  0  0  0  0  0  0  0  0
  -15.8082   -1.3175    0.0000 C   0  0  0  0  0  0  0  0  0  0  0  0
  -14.3311   -1.0566    0.0000 C   0  0  0  0  0  0  0  0  0  0  0  0
  -13.3665   -2.2053    0.0000 C   0  0  0  0  0  0  0  0  0  0  0  0
  -11.8686   -2.1264    0.0000 N   0  0  0  0  0  0  0  0  0  0  0  0
  -13.8791   -3.6150    0.0000 O   0  0  0  0  0  0  0  0  0  0  0  0
  -15.4739    0.5816    0.0000 C   0  0  0  0  0  0  0  0  0  0  0  0
  -15.2916    2.0705    0.0000 O   0  0  0  0  0  0  0  0  0  0  0  0
  -14.1747   -0.1679    0.0000 N   0  0  0  0  0  0  0  0  0  0  0  0
  -12.8759    0.5825    0.0000 C   0  0  0  0  0  0  0  0  0  0  0  0
  -11.9121    1.7319    0.0000 C   0  0  0  0  0  0  0  0  0  0  0  0
  -10.4348    1.4719    0.0000 C   0  0  0  0  0  0  0  0  0  0  0  0
   -9.4710    2.6212    0.0000 C   0  0  0  0  0  0  0  0  0  0  0  0
   -9.1355    0.7223    0.0000 C   0  0  0  0  0  0  0  0  0  0  0  0
  -11.5766   -0.1671    0.0000 C   0  0  0  0  0  0  0  0  0  0  0  0
  -11.3933   -1.6559    0.0000 O   0  0  0  0  0  0  0  0  0  0  0  0
  -10.2778    0.5833    0.0000 N   0  0  0  0  0  0  0  0  0  0  0  0
   -8.9785   -0.1663    0.0000 C   0  0  0  0  0  0  0  0  0  0  0  0
   -8.0140   -1.3150    0.0000 C   0  0  0  0  0  0  0  0  0  0  0  0
   -6.5368   -1.0541    0.0000 C   0  0  0  0  0  0  0  0  0  0  0  0
   -5.5723   -2.2028    0.0000 C   0  0  0  0  0  0  0  0  0  0  0  0
   -4.0952   -1.9419    0.0000 C   0  0  0  0  0  0  0  0  0  0  0  0
   -3.1306   -3.0907    0.0000 N   0  0  0  0  0  0  0  0  0  0  0  0
   -7.6797    0.5841    0.0000 C   0  0  0  0  0  0  0  0  0  0  0  0
   -7.3172    2.0397    0.0000 O   0  0  0  0  0  0  0  0  0  0  0  0
   -6.3804   -0.1654    0.0000 N   0  0  0  0  0  0  0  0  0  0  0  0
   -5.0816    0.5850    0.0000 C   0  0  0  0  0  0  0  0  0  0  0  0
   -4.1178    1.7344    0.0000 C   0  0  0  0  0  0  0  0  0  0  0  0
   -2.6405    1.4744    0.0000 C   0  0  0  0  0  0  0  0  0  0  0  0
   -1.6767    2.6237    0.0000 C   0  0  0  0  0  0  0  0  0  0  0  0
   -0.1994    2.3637    0.0000 N   0  0  0  0  0  0  0  0  0  0  0  0
    0.7644    3.5131    0.0000 C   0  0  0  0  0  0  0  0  0  0  0  0
    2.1990    3.0750    0.0000 N   0  0  0  0  0  0  0  0  0  0  0  0
    0.2509    4.9225    0.0000 N   0  0  0  0  0  0  0  0  0  0  0  0
   -3.7824   -0.1646    0.0000 C   0  0  0  0  0  0  0  0  0  0  0  0
   -3.4189   -1.6199    0.0000 O   0  0  0  0  0  0  0  0  0  0  0  0
   -2.4836    0.5858    0.0000 N   0  0  0  0  0  0  0  0  0  0  0  0
   -1.1843   -0.1638    0.0000 C   0  0  0  0  0  0  0  0  0  0  0  0
   -0.2197   -1.3125    0.0000 C   0  0  0  0  0  0  0  0  0  0  0  0
    1.2528   -1.5984    0.0000 O   0  0  0  0  0  0  0  0  0  0  0  0
    0.1145    0.5866    0.0000 C   0  0  0  0  0  0  0  0  0  0  0  0
    0.4770    2.0422    0.0000 O   0  0  0  0  0  0  0  0  0  0  0  0
    1.4138   -0.1629    0.0000 N   0  0  0  0  0  0  0  0  0  0  0  0
    2.7126    0.5875    0.0000 C   0  0  0  0  0  0  0  0  0  0  0  0
    3.6764    1.7369    0.0000 C   0  0  0  0  0  0  0  0  0  0  0  0
    5.1537    1.4769    0.0000 C   0  0  0  0  0  0  0  0  0  0  0  0
    5.6672    0.0675    0.0000 C   0  0  0  0  0  0  0  0  0  0  0  0
    7.1445   -0.1925    0.0000 C   0  0  0  0  0  0  0  0  0  0  0  0
    8.1083    0.9569    0.0000 C   0  0  0  0  0  0  0  0  0  0  0  0
    7.5948    2.3662    0.0000 C   0  0  0  0  0  0  0  0  0  0  0  0
    6.1175    2.6262    0.0000 C   0  0  0  0  0  0  0  0  0  0  0  0
    4.0119   -0.1621    0.0000 C   0  0  0  0  0  0  0  0  0  0  0  0
    3.6494   -1.6176    0.0000 O   0  0  0  0  0  0  0  0  0  0  0  0
    5.3107    0.5883    0.0000 N   0  0  0  0  0  0  0  0  0  0  0  0
    6.6099   -0.1613    0.0000 C   0  0  0  0  0  0  0  0  0  0  0  0
    7.5745   -1.3100    0.0000 C   0  0  0  0  0  0  0  0  0  0  0  0
    7.0619   -2.7197    0.0000 C   0  0  0  0  0  0  0  0  0  0  0  0
    5.5848   -2.9807    0.0000 C   0  0  0  0  0  0  0  0  0  0  0  0
    5.0722   -4.3904    0.0000 C   0  0  0  0  0  0  0  0  0  0  0  0
    6.0368   -5.5391    0.0000 C   0  0  0  0  0  0  0  0  0  0  0  0
    7.5139   -5.2782    0.0000 C   0  0  0  0  0  0  0  0  0  0  0  0
    8.0265   -3.8685    0.0000 C   0  0  0  0  0  0  0  0  0  0  0  0
    7.9087    0.5891    0.0000 C   0  0  0  0  0  0  0  0  0  0  0  0
    8.2712    2.0447    0.0000 O   0  0  0  0  0  0  0  0  0  0  0  0
    9.2080   -0.1604    0.0000 N   0  0  0  0  0  0  0  0  0  0  0  0
   10.5068    0.5900    0.0000 C   0  0  0  0  0  0  0  0  0  0  0  0
   11.4706    1.7394    0.0000 C   0  0  0  0  0  0  0  0  0  0  0  0
   11.8061   -0.1596    0.0000 C   0  0  0  0  0  0  0  0  0  0  0  0
   11.8066   -1.6596    0.0000 O   0  0  0  0  0  0  0  0  0  0  0  0
   13.1049    0.5908    0.0000 N   0  0  0  0  0  0  0  0  0  0  0  0
   14.4042   -0.1588    0.0000 C   0  0  0  0  0  0  0  0  0  0  0  0
   15.3687   -1.3075    0.0000 C   0  0  0  0  0  0  0  0  0  0  0  0
   14.8561   -2.7172    0.0000 C   0  0  0  0  0  0  0  0  0  0  0  0
   15.8207   -3.8660    0.0000 C   0  0  0  0  0  0  0  0  0  0  0  0
   13.8923   -3.8666    0.0000 C   0  0  0  0  0  0  0  0  0  0  0  0
   15.7030    0.5916    0.0000 C   0  0  0  0  0  0  0  0  0  0  0  0
   15.7025    2.0916    0.0000 O   0  0  0  0  0  0  0  0  0  0  0  0
   17.0022   -0.1579    0.0000 N   0  0  0  0  0  0  0  0  0  0  0  0
   18.3010    0.5925    0.0000 C   0  0  0  0  0  0  0  0  0  0  0  0
   19.2649    1.7419    0.0000 C   0  0  0  0  0  0  0  0  0  0  0  0
   20.7421    1.4819    0.0000 C   0  0  0  0  0  0  0  0  0  0  0  0
   21.7060    2.6312    0.0000 C   0  0  0  0  0  0  0  0  0  0  0  0
   23.1833    2.3712    0.0000 N   0  0  0  0  0  0  0  0  0  0  0  0
   24.1471    3.5206    0.0000 C   0  0  0  0  0  0  0  0  0  0  0  0
   25.5817    3.0825    0.0000 N   0  0  0  0  0  0  0  0  0  0  0  0
   23.6336    4.9300    0.0000 N   0  0  0  0  0  0  0  0  0  0  0  0
   19.6003   -0.1571    0.0000 C   0  0  0  0  0  0  0  0  0  0  0  0
   19.6008   -1.6571    0.0000 O   0  0  0  0  0  0  0  0  0  0  0  0
   20.8991    0.5933    0.0000 N   0  0  0  0  0  0  0  0  0  0  0  0
   22.1984   -0.1563    0.0000 C   0  0  0  0  0  0  0  0  0  0  0  0
   23.1629   -1.3050    0.0000 C   0  0  0  0  0  0  0  0  0  0  0  0
   22.6504   -2.7147    0.0000 C   0  0  0  0  0  0  0  0  0  0  0  0
   23.6149   -3.8635    0.0000 O   0  0  0  0  0  0  0  0  0  0  0  0
   21.1732   -2.9757    0.0000 O   0  0  0  0  0  0  0  0  0  0  0  0
   23.4972    0.5941    0.0000 C   0  0  0  0  0  0  0  0  0  0  0  0
   23.8597    2.0497    0.0000 O   0  0  0  0  0  0  0  0  0  0  0  0
   24.7965   -0.1554    0.0000 N   0  0  0  0  0  0  0  0  0  0  0  0
   26.0953    0.5950    0.0000 C   0  0  0  0  0  0  0  0  0  0  0  0
   27.0591    1.7444    0.0000 C   0  0  0  0  0  0  0  0  0  0  0  0
   28.5364    1.4844    0.0000 C   0  0  0  0  0  0  0  0  0  0  0  0
   29.5002    2.6337    0.0000 C   0  0  0  0  0  0  0  0  0  0  0  0
   30.9982    2.5557    0.0000 N   0  0  0  0  0  0  0  0  0  0  0  0
   28.9867    4.0431    0.0000 O   0  0  0  0  0  0  0  0  0  0  0  0
   27.3945   -0.1546    0.0000 C   0  0  0  0  0  0  0  0  0  0  0  0
   27.3950   -1.6546    0.0000 O   0  0  0  0  0  0  0  0  0  0  0  0
   28.6933    0.5958    0.0000 N   0  0  0  0  0  0  0  0  0  0  0  0
   29.9926   -0.1538    0.0000 C   0  0  0  0  0  0  0  0  0  0  0  0
   30.9572   -1.3025    0.0000 C   0  0  0  0  0  0  0  0  0  0  0  0
   30.2766   -2.6392    0.0000 C   0  0  0  0  0  0  0  0  0  0  0  0
   32.2565   -2.0521    0.0000 C   0  0  0  0  0  0  0  0  0  0  0  0
   32.2569   -3.5521    0.0000 C   0  0  0  0  0  0  0  0  0  0  0  0
   31.2914    0.5966    0.0000 C   0  0  0  0  0  0  0  0  0  0  0  0
   32.7335    0.1837    0.0000 O   0  0  0  0  0  0  0  0  0  0  0  0
   31.4738    2.0855    0.0000 O   0  0  0  0  0  0  0  0  0  0  0  0
  -29.5798   -1.6617    0.0000 H   0  0  0  0  0  0  0  0  0  0  0  0
  -29.7641    2.8271    0.0000 H   0  0  0  0  0  0  0  0  0  0  0  0
  -32.3626    4.3262    0.0000 H   0  0  0  0  0  0  0  0  0  0  0  0
  -31.9978   -1.6291    0.0000 H   0  0  0  0  0  0  0  0  0  0  0  0
  -38.9473   -3.3663    0.0000 H   0  0  0  0  0  0  0  0  0  0  0  0
  -40.0293    1.7159    0.0000 H   0  0  0  0  0  0  0  0  0  0  0  0
  -37.0950    2.3406    0.0000 H   0  0  0  0  0  0  0  0  0  0  0  0
  -41.9595   -0.0231    0.0000 H   0  0  0  0  0  0  0  0  0  0  0  0
  -32.1527    0.7365    0.0000 H   0  0  0  0  0  0  0  0  0  0  0  0
  -30.1174   -1.6734    0.0000 H   0  0  0  0  0  0  0  0  0  0  0  0
  -34.0049   -4.9704    0.0000 H   0  0  0  0  0  0  0  0  0  0  0  0
  -31.5338   -5.7725    0.0000 H   0  0  0  0  0  0  0  0  0  0  0  0
  -27.1646   -1.6721    0.0000 H   0  0  0  0  0  0  0  0  0  0  0  0
  -24.9024    1.7277    0.0000 H   0  0  0  0  0  0  0  0  0  0  0  0
  -26.8308    1.7271    0.0000 H   0  0  0  0  0  0  0  0  0  0  0  0
  -23.6024   -1.3200    0.0000 H   0  0  0  0  0  0  0  0  0  0  0  0
  -25.5308   -1.3206    0.0000 H   0  0  0  0  0  0  0  0  0  0  0  0
  -21.9684   -1.6704    0.0000 H   0  0  0  0  0  0  0  0  0  0  0  0
  -21.6347    1.7287    0.0000 H   0  0  0  0  0  0  0  0  0  0  0  0
  -19.1937    3.1391    0.0000 H   0  0  0  0  0  0  0  0  0  0  0  0
  -21.0056    2.4789    0.0000 H   0  0  0  0  0  0  0  0  0  0  0  0
  -15.7672    2.5407    0.0000 H   0  0  0  0  0  0  0  0  0  0  0  0
  -17.7787    4.0281    0.0000 H   0  0  0  0  0  0  0  0  0  0  0  0
  -17.7095    2.0364    0.0000 H   0  0  0  0  0  0  0  0  0  0  0  0
  -17.7366   -1.3181    0.0000 H   0  0  0  0  0  0  0  0  0  0  0  0
  -15.2947   -2.7269    0.0000 H   0  0  0  0  0  0  0  0  0  0  0  0
  -17.1070   -2.0679    0.0000 H   0  0  0  0  0  0  0  0  0  0  0  0
  -13.0323   -0.3062    0.0000 H   0  0  0  0  0  0  0  0  0  0  0  0
  -14.1226    0.4289    0.0000 H   0  0  0  0  0  0  0  0  0  0  0  0
  -10.9248   -3.0932    0.0000 H   0  0  0  0  0  0  0  0  0  0  0  0
  -10.8390   -0.8167    0.0000 H   0  0  0  0  0  0  0  0  0  0  0  0
  -13.8112   -1.6232    0.0000 H   0  0  0  0  0  0  0  0  0  0  0  0
  -13.8404    1.7312    0.0000 H   0  0  0  0  0  0  0  0  0  0  0  0
  -11.5751    3.1935    0.0000 H   0  0  0  0  0  0  0  0  0  0  0  0
  -13.2113    2.4814    0.0000 H   0  0  0  0  0  0  0  0  0  0  0  0
  -10.0459    0.0231    0.0000 H   0  0  0  0  0  0  0  0  0  0  0  0
   -7.9746    2.7264    0.0000 H   0  0  0  0  0  0  0  0  0  0  0  0
   -8.9584    4.0309    0.0000 H   0  0  0  0  0  0  0  0  0  0  0  0
  -10.6692    3.5236    0.0000 H   0  0  0  0  0  0  0  0  0  0  0  0
   -7.8367    1.4727    0.0000 H   0  0  0  0  0  0  0  0  0  0  0  0
   -8.1709   -0.4265    0.0000 H   0  0  0  0  0  0  0  0  0  0  0  0
  -10.2322   -0.3010    0.0000 H   0  0  0  0  0  0  0  0  0  0  0  0
   -9.9153    2.0389    0.0000 H   0  0  0  0  0  0  0  0  0  0  0  0
   -9.7950   -1.4246    0.0000 H   0  0  0  0  0  0  0  0  0  0  0  0
   -7.6761   -2.7765    0.0000 H   0  0  0  0  0  0  0  0  0  0  0  0
   -9.3128   -2.0654    0.0000 H   0  0  0  0  0  0  0  0  0  0  0  0
   -5.3392   -0.1509    0.0000 H   0  0  0  0  0  0  0  0  0  0  0  0
   -6.3284    0.4314    0.0000 H   0  0  0  0  0  0  0  0  0  0  0  0
   -5.0588   -3.6122    0.0000 H   0  0  0  0  0  0  0  0  0  0  0  0
   -6.7699   -3.1060    0.0000 H   0  0  0  0  0  0  0  0  0  0  0  0
   -2.7146   -1.3554    0.0000 H   0  0  0  0  0  0  0  0  0  0  0  0
   -4.4330   -0.4804    0.0000 H   0  0  0  0  0  0  0  0  0  0  0  0
   -1.6963   -2.6516    0.0000 H   0  0  0  0  0  0  0  0  0  0  0  0
   -3.6432   -4.5004    0.0000 H   0  0  0  0  0  0  0  0  0  0  0  0
   -6.0170   -1.6207    0.0000 H   0  0  0  0  0  0  0  0  0  0  0  0
   -6.0462    1.7337    0.0000 H   0  0  0  0  0  0  0  0  0  0  0  0
   -3.7809    3.1960    0.0000 H   0  0  0  0  0  0  0  0  0  0  0  0
   -5.4171    2.4839    0.0000 H   0  0  0  0  0  0  0  0  0  0  0  0
   -1.3413    0.7248    0.0000 H   0  0  0  0  0  0  0  0  0  0  0  0
   -2.4311   -0.0110    0.0000 H   0  0  0  0  0  0  0  0  0  0  0  0
   -1.1641    4.0334    0.0000 H   0  0  0  0  0  0  0  0  0  0  0  0
   -2.8749    3.5261    0.0000 H   0  0  0  0  0  0  0  0  0  0  0  0
    0.6398    1.1205    0.0000 H   0  0  0  0  0  0  0  0  0  0  0  0
    3.2055    4.4025    0.0000 H   0  0  0  0  0  0  0  0  0  0  0  0
    1.2147    6.0719    0.0000 H   0  0  0  0  0  0  0  0  0  0  0  0
   -1.2264    5.1825    0.0000 H   0  0  0  0  0  0  0  0  0  0  0  0
   -2.1211    2.0414    0.0000 H   0  0  0  0  0  0  0  0  0  0  0  0
   -2.0008   -1.4221    0.0000 H   0  0  0  0  0  0  0  0  0  0  0  0
    0.2937   -2.7219    0.0000 H   0  0  0  0  0  0  0  0  0  0  0  0
   -1.6003   -1.8990    0.0000 H   0  0  0  0  0  0  0  0  0  0  0  0
    2.2219   -2.2003    0.0000 H   0  0  0  0  0  0  0  0  0  0  0  0
    1.5971   -1.6517    0.0000 H   0  0  0  0  0  0  0  0  0  0  0  0
    1.7480    1.7362    0.0000 H   0  0  0  0  0  0  0  0  0  0  0  0
    4.1890    3.1466    0.0000 H   0  0  0  0  0  0  0  0  0  0  0  0
    2.2954    2.3225    0.0000 H   0  0  0  0  0  0  0  0  0  0  0  0
    4.7034   -1.0819    0.0000 H   0  0  0  0  0  0  0  0  0  0  0  0
    7.9837   -1.4358    0.0000 H   0  0  0  0  0  0  0  0  0  0  0  0
    9.5856    0.6969    0.0000 H   0  0  0  0  0  0  0  0  0  0  0  0
    8.5586    3.5156    0.0000 H   0  0  0  0  0  0  0  0  0  0  0  0
    5.6040    4.0356    0.0000 H   0  0  0  0  0  0  0  0  0  0  0  0
    5.6732    2.0439    0.0000 H   0  0  0  0  0  0  0  0  0  0  0  0
    5.6461   -1.3106    0.0000 H   0  0  0  0  0  0  0  0  0  0  0  0
    8.7727   -2.2124    0.0000 H   0  0  0  0  0  0  0  0  0  0  0  0
    8.7878   -0.4280    0.0000 H   0  0  0  0  0  0  0  0  0  0  0  0
    4.3709   -2.0995    0.0000 H   0  0  0  0  0  0  0  0  0  0  0  0
    3.5951   -4.6513    0.0000 H   0  0  0  0  0  0  0  0  0  0  0  0
    5.5242   -6.9488    0.0000 H   0  0  0  0  0  0  0  0  0  0  0  0
    8.4784   -6.4269    0.0000 H   0  0  0  0  0  0  0  0  0  0  0  0
    9.5036   -3.6075    0.0000 H   0  0  0  0  0  0  0  0  0  0  0  0
    9.3913   -1.6492    0.0000 H   0  0  0  0  0  0  0  0  0  0  0  0
    9.5423    1.7387    0.0000 H   0  0  0  0  0  0  0  0  0  0  0  0
   12.9429    2.0262    0.0000 H   0  0  0  0  0  0  0  0  0  0  0  0
   11.9832    3.1491    0.0000 H   0  0  0  0  0  0  0  0  0  0  0  0
   10.1713    2.4889    0.0000 H   0  0  0  0  0  0  0  0  0  0  0  0
   13.2873    2.0797    0.0000 H   0  0  0  0  0  0  0  0  0  0  0  0
   13.3074   -1.1821    0.0000 H   0  0  0  0  0  0  0  0  0  0  0  0
   16.6680   -2.0571    0.0000 H   0  0  0  0  0  0  0  0  0  0  0  0
   16.5820   -0.4255    0.0000 H   0  0  0  0  0  0  0  0  0  0  0  0
   13.4752   -2.1316    0.0000 H   0  0  0  0  0  0  0  0  0  0  0  0
   15.4838   -5.3277    0.0000 H   0  0  0  0  0  0  0  0  0  0  0  0
   17.1200   -4.6156    0.0000 H   0  0  0  0  0  0  0  0  0  0  0  0
   16.9174   -2.8427    0.0000 H   0  0  0  0  0  0  0  0  0  0  0  0
   14.2302   -5.3281    0.0000 H   0  0  0  0  0  0  0  0  0  0  0  0
   12.5935   -4.6170    0.0000 H   0  0  0  0  0  0  0  0  0  0  0  0
   12.9278   -2.7179    0.0000 H   0  0  0  0  0  0  0  0  0  0  0  0
   17.1856   -1.6467    0.0000 H   0  0  0  0  0  0  0  0  0  0  0  0
   17.3365    1.7412    0.0000 H   0  0  0  0  0  0  0  0  0  0  0  0
   19.6018    3.2035    0.0000 H   0  0  0  0  0  0  0  0  0  0  0  0
   17.9656    2.4914    0.0000 H   0  0  0  0  0  0  0  0  0  0  0  0
   22.0414    0.7323    0.0000 H   0  0  0  0  0  0  0  0  0  0  0  0
   20.9515   -0.0035    0.0000 H   0  0  0  0  0  0  0  0  0  0  0  0
   22.2185    4.0409    0.0000 H   0  0  0  0  0  0  0  0  0  0  0  0
   20.5077    3.5336    0.0000 H   0  0  0  0  0  0  0  0  0  0  0  0
   24.0225    1.1280    0.0000 H   0  0  0  0  0  0  0  0  0  0  0  0
   26.5882    4.4100    0.0000 H   0  0  0  0  0  0  0  0  0  0  0  0
   24.5974    6.0794    0.0000 H   0  0  0  0  0  0  0  0  0  0  0  0
   22.1563    5.1900    0.0000 H   0  0  0  0  0  0  0  0  0  0  0  0
   21.2616    2.0489    0.0000 H   0  0  0  0  0  0  0  0  0  0  0  0
   21.2346   -1.3056    0.0000 H   0  0  0  0  0  0  0  0  0  0  0  0
   24.3612   -2.2074    0.0000 H   0  0  0  0  0  0  0  0  0  0  0  0
   24.3762   -0.4230    0.0000 H   0  0  0  0  0  0  0  0  0  0  0  0
   20.6607   -4.3854    0.0000 H   0  0  0  0  0  0  0  0  0  0  0  0
   24.9798   -1.6442    0.0000 H   0  0  0  0  0  0  0  0  0  0  0  0
   25.1307    1.7437    0.0000 H   0  0  0  0  0  0  0  0  0  0  0  0
   27.5717    3.1541    0.0000 H   0  0  0  0  0  0  0  0  0  0  0  0
   25.6781    2.3300    0.0000 H   0  0  0  0  0  0  0  0  0  0  0  0
   29.8357    0.7348    0.0000 H   0  0  0  0  0  0  0  0  0  0  0  0
   28.7458   -0.0010    0.0000 H   0  0  0  0  0  0  0  0  0  0  0  0
   31.9413    3.5231    0.0000 H   0  0  0  0  0  0  0  0  0  0  0  0
   31.8614    1.1309    0.0000 H   0  0  0  0  0  0  0  0  0  0  0  0
   29.0558    2.0514    0.0000 H   0  0  0  0  0  0  0  0  0  0  0  0
   28.8959   -1.1771    0.0000 H   0  0  0  0  0  0  0  0  0  0  0  0
   32.0539   -0.2792    0.0000 H   0  0  0  0  0  0  0  0  0  0  0  0
   31.2518   -3.9899    0.0000 H   0  0  0  0  0  0  0  0  0  0  0  0
   29.4808   -3.8616    0.0000 H   0  0  0  0  0  0  0  0  0  0  0  0
   29.0636   -2.1266    0.0000 H   0  0  0  0  0  0  0  0  0  0  0  0
   33.7337   -2.3121    0.0000 H   0  0  0  0  0  0  0  0  0  0  0  0
   32.9370   -0.7154    0.0000 H   0  0  0  0  0  0  0  0  0  0  0  0
   33.5562   -4.3017    0.0000 H   0  0  0  0  0  0  0  0  0  0  0  0
   31.7444   -4.9618    0.0000 H   0  0  0  0  0  0  0  0  0  0  0  0
   30.7606   -3.6573    0.0000 H   0  0  0  0  0  0  0  0  0  0  0  0
   32.5897    2.8471    0.0000 H   0  0  0  0  0  0  0  0  0  0  0  0
  1  2  1  0
  2  3  1  0
  3  4  2  0
  4  5  1  0
  5  6  2  0
  6  7  1  0
  7  8  2  0
  7  9  1  0
  9 10  1  0
 10 11  1  0
 11 12  2  0
  9 13  1  0
 13 14  1  0
 14 15  2  0
 15 16  1  0
 16 17  2  0
 17 18  1  0
 16 19  1  0
 14 20  1  0
 20 21  1  0
 21 22  2  0
 22 23  1  0
 23 24  2  0
 24 25  1  0
 25 26  2  0
 25 27  1  0
  1 28  2  0
  1 29  1  0
 29 30  1  0
 30 31  1  0
 31 32  1  0
 32 33  2  0
 32 34  1  0
 34 35  1  0
 35 36  1  0
 36 37  1  0
 37 38  1  0
 37 39  2  0
 35 40  1  0
 40 41  2  0
 40 42  1  0
 42 43  1  0
 43 44  1  0
 44 45  1  0
 45 46  1  0
 46 47  1  0
 46 48  2  0
 43 49  1  0
 49 50  2  0
 49 51  1  0
 51 52  1  0
 52 53  1  0
 53 54  1  0
 54 55  1  0
 54 56  1  0
 52 57  1  0
 57 58  2  0
 57 59  1  0
 59 60  1  0
 60 61  1  0
 61 62  1  0
 62 63  1  0
 63 64  1  0
 64 65  1  0
 60 66  1  0
 66 67  2  0
 66 68  1  0
 68 69  1  0
 69 70  1  0
 70 71  1  0
 71 72  1  0
 72 73  1  0
 73 74  1  0
 74 75  2  3
 74 76  1  0
 69 77  1  0
 77 78  2  0
 77 79  1  0
 79 80  1  0
 80 81  1  0
 81 82  1  0
 80 83  1  0
 83 84  2  0
 83 85  1  0
 85 86  1  0
 86 87  1  0
 87 88  1  0
 88 89  2  0
 89 90  1  0
 90 91  2  0
 91 92  1  0
 92 93  2  0
 86 94  1  0
 94 95  2  0
 94 96  1  0
 96 97  1  0
 97 98  1  0
 98 99  1  0
 99100  2  0
100101  1  0
101102  2  0
102103  1  0
103104  2  0
 97105  1  0
105106  2  0
105107  1  0
107108  1  0
108109  1  0
108110  1  0
110111  2  0
110112  1  0
112113  1  0
113114  1  0
114115  1  0
115116  1  0
115117  1  0
113118  1  0
118119  2  0
118120  1  0
120121  1  0
121122  1  0
122123  1  0
123124  1  0
124125  1  0
125126  1  0
126127  2  3
126128  1  0
121129  1  0
129130  2  0
129131  1  0
131132  1  0
132133  1  0
133134  1  0
134135  2  0
134136  1  0
132137  1  0
137138  2  0
137139  1  0
139140  1  0
140141  1  0
141142  1  0
142143  1  0
143144  1  0
143145  2  0
140146  1  0
146147  2  0
146148  1  0
148149  1  0
149150  1  0
150151  1  0
150152  1  0
152153  1  0
149154  1  0
154155  2  0
154156  1  0
  8  3  1  0
 93 88  1  0
104 99  1  0
 11  6  1  0
 18 13  2  0
 22  9  1  0
 26 21  1  0
  2157  1  0
  4158  1  0
  5159  1  0
  8160  1  0
 15161  1  0
 17162  1  0
 18163  1  0
 19164  1  0
 23165  1  0
 24166  1  0
 26167  1  0
 27168  1  0
 29169  1  0
 30170  1  0
 30171  1  0
 31172  1  0
 31173  1  0
 34174  1  0
 35175  1  1
 36176  1  0
 36177  1  0
 38178  1  0
 38179  1  0
 42180  1  0
 43181  1  6
 44182  1  0
 44183  1  0
 45184  1  0
 45185  1  0
 47186  1  0
 47187  1  0
 51188  1  0
 52189  1  1
 53190  1  0
 53191  1  0
 54192  1  0
 55193  1  0
 55194  1  0
 55195  1  0
 56196  1  0
 56197  1  0
 56198  1  0
 59199  1  0
 60200  1  6
 61201  1  0
 61202  1  0
 62203  1  0
 62204  1  0
 63205  1  0
 63206  1  0
 64207  1  0
 64208  1  0
 65209  1  0
 65210  1  0
 68211  1  0
 69212  1  1
 70213  1  0
 70214  1  0
 71215  1  0
 71216  1  0
 72217  1  0
 72218  1  0
 73219  1  0
 75220  1  0
 76221  1  0
 76222  1  0
 79223  1  0
 80224  1  6
 81225  1  0
 81226  1  0
 82227  1  0
 85228  1  0
 86229  1  1
 87230  1  0
 87231  1  0
 89232  1  0
 90233  1  0
 91234  1  0
 92235  1  0
 93236  1  0
 96237  1  0
 97238  1  6
 98239  1  0
 98240  1  0
100241  1  0
101242  1  0
102243  1  0
103244  1  0
104245  1  0
107246  1  0
108247  1  1
109248  1  0
109249  1  0
109250  1  0
112251  1  0
113252  1  6
114253  1  0
114254  1  0
115255  1  0
116256  1  0
116257  1  0
116258  1  0
117259  1  0
117260  1  0
117261  1  0
120262  1  0
121263  1  1
122264  1  0
122265  1  0
123266  1  0
123267  1  0
124268  1  0
124269  1  0
125270  1  0
127271  1  0
128272  1  0
128273  1  0
131274  1  0
132275  1  6
133276  1  0
133277  1  0
136278  1  0
139279  1  0
140280  1  1
141281  1  0
141282  1  0
142283  1  0
142284  1  0
144285  1  0
144286  1  0
148287  1  0
149288  1  6
150289  1  1
151290  1  0
151291  1  0
151292  1  0
152293  1  0
152294  1  0
153295  1  0
153296  1  0
153297  1  0
156298  1  0
M  END
