
     RDKit          2D

240247  0  0  0  0  0  0  0  0999 V2000
  -17.6775   -0.4799    0.0000 C   0  0  0  0  0  0  0  0  0  0  0  0
  -18.9408   -1.2886    0.0000 N   0  0  0  0  0  0  0  0  0  0  0  0
  -20.2729   -0.5990    0.0000 C   0  0  0  0  0  0  0  0  0  0  0  0
  -20.3417    0.8994    0.0000 C   0  0  0  0  0  0  0  0  0  0  0  0
  -21.6737    1.5891    0.0000 C   0  0  0  0  0  0  0  0  0  0  0  0
  -22.9370    0.7803    0.0000 C   0  0  0  0  0  0  0  0  0  0  0  0
  -22.8682   -0.7181    0.0000 C   0  0  0  0  0  0  0  0  0  0  0  0
  -21.5362   -1.4077    0.0000 C   0  0  0  0  0  0  0  0  0  0  0  0
  -24.2721   -1.2465    0.0000 C   0  0  0  0  0  0  0  0  0  0  0  0
  -25.2085   -0.0747    0.0000 O   0  0  0  0  0  0  0  0  0  0  0  0
  -24.3833    1.1780    0.0000 C   0  0  0  0  0  0  0  0  0  0  0  0
  -24.9118    2.5818    0.0000 O   0  0  0  0  0  0  0  0  0  0  0  0
  -25.7234   -1.6253    0.0000 C   0  0  0  0  0  0  0  0  0  0  0  0
  -26.1211   -3.0717    0.0000 C   0  0  0  0  0  0  0  0  0  0  0  0
  -27.5725   -3.4505    0.0000 C   0  0  0  0  0  0  0  0  0  0  0  0
  -28.6262   -2.3830    0.0000 C   0  0  0  0  0  0  0  0  0  0  0  0
  -28.2286   -0.9366    0.0000 C   0  0  0  0  0  0  0  0  0  0  0  0
  -26.7772   -0.5578    0.0000 C   0  0  0  0  0  0  0  0  0  0  0  0
  -30.0776   -2.7618    0.0000 O   0  0  0  0  0  0  0  0  0  0  0  0
  -25.0673   -4.1392    0.0000 O   0  0  0  0  0  0  0  0  0  0  0  0
  -23.6159   -3.7604    0.0000 C   0  0  0  0  0  0  0  0  0  0  0  0
  -23.2183   -2.3141    0.0000 C   0  0  0  0  0  0  0  0  0  0  0  0
  -21.9525   -2.6102    0.0000 C   0  0  0  0  0  0  0  0  0  0  0  0
  -21.3905   -3.1796    0.0000 C   0  0  0  0  0  0  0  0  0  0  0  0
  -21.6026   -3.9509    0.0000 C   0  0  0  0  0  0  0  0  0  0  0  0
  -22.3766   -4.1530    0.0000 C   0  0  0  0  0  0  0  0  0  0  0  0
  -20.0571   -5.5167    0.0000 O   0  0  0  0  0  0  0  0  0  0  0  0
  -17.7463    1.0186    0.0000 S   0  0  0  0  0  0  0  0  0  0  0  0
  -16.3455   -1.1695    0.0000 N   0  0  0  0  0  0  0  0  0  0  0  0
  -15.0822   -0.3607    0.0000 C   0  0  0  0  0  0  0  0  0  0  0  0
  -13.7501   -1.0504    0.0000 C   0  0  0  0  0  0  0  0  0  0  0  0
  -12.4869   -0.2416    0.0000 C   0  0  0  0  0  0  0  0  0  0  0  0
  -12.5556    1.2568    0.0000 O   0  0  0  0  0  0  0  0  0  0  0  0
  -11.1548   -0.9313    0.0000 N   0  0  0  0  0  0  0  0  0  0  0  0
   -9.8915   -0.1225    0.0000 C   0  0  0  0  0  0  0  0  0  0  0  0
   -8.9810    1.0695    0.0000 C   0  0  0  0  0  0  0  0  0  0  0  0
   -7.4934    0.8771    0.0000 C   0  0  0  0  0  0  0  0  0  0  0  0
   -6.5829    2.0691    0.0000 C   0  0  0  0  0  0  0  0  0  0  0  0
   -5.0953    1.8767    0.0000 N   0  0  0  0  0  0  0  0  0  0  0  0
   -4.1849    3.0687    0.0000 C   0  0  0  0  0  0  0  0  0  0  0  0
   -2.7318    2.6964    0.0000 N   0  0  0  0  0  0  0  0  0  0  0  0
   -4.7620    4.4533    0.0000 N   0  0  0  0  0  0  0  0  0  0  0  0
   -8.5595   -0.8122    0.0000 C   0  0  0  0  0  0  0  0  0  0  0  0
   -8.4907   -2.3106    0.0000 O   0  0  0  0  0  0  0  0  0  0  0  0
   -7.2962   -0.0034    0.0000 N   0  0  0  0  0  0  0  0  0  0  0  0
   -5.9641   -0.6931    0.0000 C   0  0  0  0  0  0  0  0  0  0  0  0
   -4.9483   -1.7967    0.0000 C   0  0  0  0  0  0  0  0  0  0  0  0
   -5.3961   -3.2283    0.0000 C   0  0  0  0  0  0  0  0  0  0  0  0
   -4.3803   -4.3319    0.0000 C   0  0  0  0  0  0  0  0  0  0  0  0
   -4.8281   -5.7635    0.0000 C   0  0  0  0  0  0  0  0  0  0  0  0
   -3.8123   -6.8672    0.0000 N   0  0  0  0  0  0  0  0  0  0  0  0
   -4.7008    0.1157    0.0000 C   0  0  0  0  0  0  0  0  0  0  0  0
   -4.4851    1.1877    0.0000 O   0  0  0  0  0  0  0  0  0  0  0  0
   -3.3688   -0.5739    0.0000 N   0  0  0  0  0  0  0  0  0  0  0  0
   -2.1055    0.2348    0.0000 C   0  0  0  0  0  0  0  0  0  0  0  0
   -1.1950    1.4269    0.0000 C   0  0  0  0  0  0  0  0  0  0  0  0
   -0.7734   -0.4548    0.0000 C   0  0  0  0  0  0  0  0  0  0  0  0
   -0.8878   -1.9505    0.0000 O   0  0  0  0  0  0  0  0  0  0  0  0
    0.4899    0.3539    0.0000 N   0  0  0  0  0  0  0  0  0  0  0  0
    1.8219   -0.3357    0.0000 C   0  0  0  0  0  0  0  0  0  0  0  0
    2.1862   -1.7908    0.0000 C   0  0  0  0  0  0  0  0  0  0  0  0
    2.9633   -3.0739    0.0000 C   0  0  0  0  0  0  0  0  0  0  0  0
    4.0840   -4.0709    0.0000 C   0  0  0  0  0  0  0  0  0  0  0  0
    5.4487   -4.6933    0.0000 C   0  0  0  0  0  0  0  0  0  0  0  0
    0.5408   -1.1159    0.0000 C   0  0  0  0  0  0  0  0  0  0  0  0
    1.9027    1.1621    0.0000 C   0  0  0  0  0  0  0  0  0  0  0  0
    0.5506    1.8117    0.0000 O   0  0  0  0  0  0  0  0  0  0  0  0
    2.4214    2.5696    0.0000 N   0  0  0  0  0  0  0  0  0  0  0  0
    3.3318    3.7616    0.0000 C   0  0  0  0  0  0  0  0  0  0  0  0
    3.0405    5.2331    0.0000 C   0  0  0  0  0  0  0  0  0  0  0  0
    1.6205    5.7165    0.0000 C   0  0  0  0  0  0  0  0  0  0  0  0
    1.3292    7.1879    0.0000 C   0  0  0  0  0  0  0  0  0  0  0  0
   -0.0908    7.6714    0.0000 N   0  0  0  0  0  0  0  0  0  0  0  0
   -0.3821    9.1428    0.0000 C   0  0  0  0  0  0  0  0  0  0  0  0
   -1.8021    9.6262    0.0000 N   0  0  0  0  0  0  0  0  0  0  0  0
    0.7466   10.1308    0.0000 N   0  0  0  0  0  0  0  0  0  0  0  0
    4.5532    4.6324    0.0000 C   0  0  0  0  0  0  0  0  0  0  0  0
    3.8743    5.9699    0.0000 O   0  0  0  0  0  0  0  0  0  0  0  0
    5.9770    5.1044    0.0000 N   0  0  0  0  0  0  0  0  0  0  0  0
    7.4767    5.1358    0.0000 C   0  0  0  0  0  0  0  0  0  0  0  0
    8.4455    6.2810    0.0000 C   0  0  0  0  0  0  0  0  0  0  0  0
    7.9381    7.6926    0.0000 C   0  0  0  0  0  0  0  0  0  0  0  0
    8.9069    8.8378    0.0000 C   0  0  0  0  0  0  0  0  0  0  0  0
    6.9785    8.8455    0.0000 C   0  0  0  0  0  0  0  0  0  0  0  0
    8.9190    4.7238    0.0000 C   0  0  0  0  0  0  0  0  0  0  0  0
    9.5414    6.0886    0.0000 O   0  0  0  0  0  0  0  0  0  0  0  0
   10.1758    3.9049    0.0000 N   0  0  0  0  0  0  0  0  0  0  0  0
   11.1354    2.7520    0.0000 C   0  0  0  0  0  0  0  0  0  0  0  0
   12.6347    2.7086    0.0000 C   0  0  0  0  0  0  0  0  0  0  0  0
   13.4220    3.9854    0.0000 C   0  0  0  0  0  0  0  0  0  0  0  0
   14.9214    3.9420    0.0000 C   0  0  0  0  0  0  0  0  0  0  0  0
   15.7086    5.2188    0.0000 C   0  0  0  0  0  0  0  0  0  0  0  0
   14.9965    6.5390    0.0000 C   0  0  0  0  0  0  0  0  0  0  0  0
   13.4972    6.5824    0.0000 C   0  0  0  0  0  0  0  0  0  0  0  0
   12.7099    5.3056    0.0000 C   0  0  0  0  0  0  0  0  0  0  0  0
   11.7125    1.3675    0.0000 C   0  0  0  0  0  0  0  0  0  0  0  0
   13.1676    1.7318    0.0000 O   0  0  0  0  0  0  0  0  0  0  0  0
   11.8558   -0.1257    0.0000 N   0  0  0  0  0  0  0  0  0  0  0  0
   11.5527   -1.5947    0.0000 C   0  0  0  0  0  0  0  0  0  0  0  0
   10.8301   -2.9092    0.0000 C   0  0  0  0  0  0  0  0  0  0  0  0
    9.7521   -3.9522    0.0000 C   0  0  0  0  0  0  0  0  0  0  0  0
    8.4146   -4.6312    0.0000 C   0  0  0  0  0  0  0  0  0  0  0  0
    6.9363   -4.8857    0.0000 C   0  0  0  0  0  0  0  0  0  0  0  0
   13.0165   -1.2668    0.0000 C   0  0  0  0  0  0  0  0  0  0  0  0
   12.4537   -2.7940    0.0000 C   0  0  0  0  0  0  0  0  0  0  0  0
   12.2168   -4.2752    0.0000 O   0  0  0  0  0  0  0  0  0  0  0  0
   13.9427   -2.6135    0.0000 N   0  0  0  0  0  0  0  0  0  0  0  0
   14.8437   -3.8128    0.0000 C   0  0  0  0  0  0  0  0  0  0  0  0
   15.2801   -5.2479    0.0000 C   0  0  0  0  0  0  0  0  0  0  0  0
   14.2554   -6.3434    0.0000 O   0  0  0  0  0  0  0  0  0  0  0  0
   16.3328   -3.6322    0.0000 C   0  0  0  0  0  0  0  0  0  0  0  0
   16.9209   -2.2524    0.0000 O   0  0  0  0  0  0  0  0  0  0  0  0
   17.2337   -4.8316    0.0000 N   0  0  0  0  0  0  0  0  0  0  0  0
   18.7228   -4.6510    0.0000 C   0  0  0  0  0  0  0  0  0  0  0  0
   20.0603   -3.9720    0.0000 C   0  0  0  0  0  0  0  0  0  0  0  0
   21.3171   -4.7909    0.0000 C   0  0  0  0  0  0  0  0  0  0  0  0
   21.2363   -6.2887    0.0000 C   0  0  0  0  0  0  0  0  0  0  0  0
   22.4931   -7.1076    0.0000 C   0  0  0  0  0  0  0  0  0  0  0  0
   23.8306   -6.4286    0.0000 C   0  0  0  0  0  0  0  0  0  0  0  0
   25.0874   -7.2475    0.0000 O   0  0  0  0  0  0  0  0  0  0  0  0
   23.9114   -4.9308    0.0000 C   0  0  0  0  0  0  0  0  0  0  0  0
   22.6546   -4.1119    0.0000 C   0  0  0  0  0  0  0  0  0  0  0  0
   19.6237   -5.8503    0.0000 C   0  0  0  0  0  0  0  0  0  0  0  0
   20.5026   -5.9596    0.0000 O   0  0  0  0  0  0  0  0  0  0  0  0
   18.8717   -7.1482    0.0000 O   0  0  0  0  0  0  0  0  0  0  0  0
  -18.6899   -2.7675    0.0000 H   0  0  0  0  0  0  0  0  0  0  0  0
  -19.0784    1.7082    0.0000 H   0  0  0  0  0  0  0  0  0  0  0  0
  -21.7425    3.0875    0.0000 H   0  0  0  0  0  0  0  0  0  0  0  0
  -21.3080   -2.1716    0.0000 H   0  0  0  0  0  0  0  0  0  0  0  0
  -27.9701   -4.8968    0.0000 H   0  0  0  0  0  0  0  0  0  0  0  0
  -29.2823    0.1309    0.0000 H   0  0  0  0  0  0  0  0  0  0  0  0
  -26.3796    0.8885    0.0000 H   0  0  0  0  0  0  0  0  0  0  0  0
  -31.1313   -1.6942    0.0000 H   0  0  0  0  0  0  0  0  0  0  0  0
  -21.3693   -0.4889    0.0000 H   0  0  0  0  0  0  0  0  0  0  0  0
  -19.2265   -2.8037    0.0000 H   0  0  0  0  0  0  0  0  0  0  0  0
  -22.9598   -6.2743    0.0000 H   0  0  0  0  0  0  0  0  0  0  0  0
  -20.4547   -6.9630    0.0000 H   0  0  0  0  0  0  0  0  0  0  0  0
  -16.2767   -2.6679    0.0000 H   0  0  0  0  0  0  0  0  0  0  0  0
  -14.1717    0.8313    0.0000 H   0  0  0  0  0  0  0  0  0  0  0  0
  -16.0980    0.7429    0.0000 H   0  0  0  0  0  0  0  0  0  0  0  0
  -12.7343   -2.1541    0.0000 H   0  0  0  0  0  0  0  0  0  0  0  0
  -14.6606   -2.2425    0.0000 H   0  0  0  0  0  0  0  0  0  0  0  0
  -11.0860   -2.4297    0.0000 H   0  0  0  0  0  0  0  0  0  0  0  0
  -10.9074    0.9811    0.0000 H   0  0  0  0  0  0  0  0  0  0  0  0
   -8.7110    2.5450    0.0000 H   0  0  0  0  0  0  0  0  0  0  0  0
  -10.3131    1.7592    0.0000 H   0  0  0  0  0  0  0  0  0  0  0  0
   -6.1614    0.1874    0.0000 H   0  0  0  0  0  0  0  0  0  0  0  0
   -7.2166   -0.5972    0.0000 H   0  0  0  0  0  0  0  0  0  0  0  0
   -6.1351    3.5007    0.0000 H   0  0  0  0  0  0  0  0  0  0  0  0
   -7.8210    2.9160    0.0000 H   0  0  0  0  0  0  0  0  0  0  0  0
   -4.2004    0.6729    0.0000 H   0  0  0  0  0  0  0  0  0  0  0  0
   -1.7868    4.0683    0.0000 H   0  0  0  0  0  0  0  0  0  0  0  0
   -3.8515    5.6453    0.0000 H   0  0  0  0  0  0  0  0  0  0  0  0
   -6.2496    4.6457    0.0000 H   0  0  0  0  0  0  0  0  0  0  0  0
   -7.0003    1.4671    0.0000 H   0  0  0  0  0  0  0  0  0  0  0  0
   -7.0131   -1.7652    0.0000 H   0  0  0  0  0  0  0  0  0  0  0  0
   -3.6162   -2.4864    0.0000 H   0  0  0  0  0  0  0  0  0  0  0  0
   -3.7764   -0.8604    0.0000 H   0  0  0  0  0  0  0  0  0  0  0  0
   -6.4451   -4.3005    0.0000 H   0  0  0  0  0  0  0  0  0  0  0  0
   -6.8023   -2.7062    0.0000 H   0  0  0  0  0  0  0  0  0  0  0  0
   -3.0482   -5.0216    0.0000 H   0  0  0  0  0  0  0  0  0  0  0  0
   -3.3313   -3.2598    0.0000 H   0  0  0  0  0  0  0  0  0  0  0  0
   -5.7386   -6.9556    0.0000 H   0  0  0  0  0  0  0  0  0  0  0  0
   -6.2343   -5.2414    0.0000 H   0  0  0  0  0  0  0  0  0  0  0  0
   -4.2602   -8.2988    0.0000 H   0  0  0  0  0  0  0  0  0  0  0  0
   -2.3486   -6.5392    0.0000 H   0  0  0  0  0  0  0  0  0  0  0  0
   -3.1179   -2.0528    0.0000 H   0  0  0  0  0  0  0  0  0  0  0  0
   -3.1213    1.3385    0.0000 H   0  0  0  0  0  0  0  0  0  0  0  0
    0.2088    1.9555    0.0000 H   0  0  0  0  0  0  0  0  0  0  0  0
   -0.7471    2.8585    0.0000 H   0  0  0  0  0  0  0  0  0  0  0  0
   -2.6012    1.9490    0.0000 H   0  0  0  0  0  0  0  0  0  0  0  0
    0.4211    1.8524    0.0000 H   0  0  0  0  0  0  0  0  0  0  0  0
    0.6886   -1.7063    0.0000 H   0  0  0  0  0  0  0  0  0  0  0  0
    1.3363   -3.0268    0.0000 H   0  0  0  0  0  0  0  0  0  0  0  0
    1.5621   -3.6094    0.0000 H   0  0  0  0  0  0  0  0  0  0  0  0
    2.3442   -4.4402    0.0000 H   0  0  0  0  0  0  0  0  0  0  0  0
    2.7990   -4.8447    0.0000 H   0  0  0  0  0  0  0  0  0  0  0  0
    4.0779   -5.5709    0.0000 H   0  0  0  0  0  0  0  0  0  0  0  0
    5.0367   -6.1356    0.0000 H   0  0  0  0  0  0  0  0  0  0  0  0
    0.4580   -2.7798    0.0000 H   0  0  0  0  0  0  0  0  0  0  0  0
   -0.6926   -1.8944    0.0000 H   0  0  0  0  0  0  0  0  0  0  0  0
   -0.3317   -0.1278    0.0000 H   0  0  0  0  0  0  0  0  0  0  0  0
    1.1069    3.2922    0.0000 H   0  0  0  0  0  0  0  0  0  0  0  0
    1.8403    3.9207    0.0000 H   0  0  0  0  0  0  0  0  0  0  0  0
    3.4490    6.6764    0.0000 H   0  0  0  0  0  0  0  0  0  0  0  0
    4.4880    5.6264    0.0000 H   0  0  0  0  0  0  0  0  0  0  0  0
    0.1209    5.6851    0.0000 H   0  0  0  0  0  0  0  0  0  0  0  0
    1.2121    4.2732    0.0000 H   0  0  0  0  0  0  0  0  0  0  0  0
    1.5587    8.6703    0.0000 H   0  0  0  0  0  0  0  0  0  0  0  0
    2.8139    7.4019    0.0000 H   0  0  0  0  0  0  0  0  0  0  0  0
   -1.2194    6.6833    0.0000 H   0  0  0  0  0  0  0  0  0  0  0  0
   -2.0934   11.0977    0.0000 H   0  0  0  0  0  0  0  0  0  0  0  0
    0.4552   11.6023    0.0000 H   0  0  0  0  0  0  0  0  0  0  0  0
    2.1665    9.6474    0.0000 H   0  0  0  0  0  0  0  0  0  0  0  0
    5.7225    6.5827    0.0000 H   0  0  0  0  0  0  0  0  0  0  0  0
    6.6711    6.4011    0.0000 H   0  0  0  0  0  0  0  0  0  0  0  0
    9.8286    6.8615    0.0000 H   0  0  0  0  0  0  0  0  0  0  0  0
    9.6555    5.3945    0.0000 H   0  0  0  0  0  0  0  0  0  0  0  0
    6.5550    7.1121    0.0000 H   0  0  0  0  0  0  0  0  0  0  0  0
    8.5753   10.3007    0.0000 H   0  0  0  0  0  0  0  0  0  0  0  0
   10.2089    9.5826    0.0000 H   0  0  0  0  0  0  0  0  0  0  0  0
    9.9998    7.8104    0.0000 H   0  0  0  0  0  0  0  0  0  0  0  0
    7.3218   10.3057    0.0000 H   0  0  0  0  0  0  0  0  0  0  0  0
    5.6825    9.6007    0.0000 H   0  0  0  0  0  0  0  0  0  0  0  0
    6.0098    7.7003    0.0000 H   0  0  0  0  0  0  0  0  0  0  0  0
   11.0288    5.1388    0.0000 H   0  0  0  0  0  0  0  0  0  0  0  0
   11.7916    4.1008    0.0000 H   0  0  0  0  0  0  0  0  0  0  0  0
   14.0288    2.1550    0.0000 H   0  0  0  0  0  0  0  0  0  0  0  0
   12.6961    1.2099    0.0000 H   0  0  0  0  0  0  0  0  0  0  0  0
   15.6335    2.6218    0.0000 H   0  0  0  0  0  0  0  0  0  0  0  0
   17.2080    5.1754    0.0000 H   0  0  0  0  0  0  0  0  0  0  0  0
   15.7838    7.8158    0.0000 H   0  0  0  0  0  0  0  0  0  0  0  0
   12.7851    7.9026    0.0000 H   0  0  0  0  0  0  0  0  0  0  0  0
   11.2270    5.5314    0.0000 H   0  0  0  0  0  0  0  0  0  0  0  0
   13.3537   -0.2064    0.0000 H   0  0  0  0  0  0  0  0  0  0  0  0
   11.3375   -4.3208    0.0000 H   0  0  0  0  0  0  0  0  0  0  0  0
   12.2524   -3.3856    0.0000 H   0  0  0  0  0  0  0  0  0  0  0  0
   10.0030   -5.4311    0.0000 H   0  0  0  0  0  0  0  0  0  0  0  0
   10.9708   -4.8267    0.0000 H   0  0  0  0  0  0  0  0  0  0  0  0
    8.0386   -6.0833    0.0000 H   0  0  0  0  0  0  0  0  0  0  0  0
    9.4603   -5.7066    0.0000 H   0  0  0  0  0  0  0  0  0  0  0  0
    6.9677   -6.3854    0.0000 H   0  0  0  0  0  0  0  0  0  0  0  0
   14.2692   -2.0918    0.0000 H   0  0  0  0  0  0  0  0  0  0  0  0
   14.1717   -0.3101    0.0000 H   0  0  0  0  0  0  0  0  0  0  0  0
   12.7915    0.2162    0.0000 H   0  0  0  0  0  0  0  0  0  0  0  0
   14.6947   -1.3156    0.0000 H   0  0  0  0  0  0  0  0  0  0  0  0
   13.5061   -4.4918    0.0000 H   0  0  0  0  0  0  0  0  0  0  0  0
   16.0281   -6.5481    0.0000 H   0  0  0  0  0  0  0  0  0  0  0  0
   16.7421   -4.9128    0.0000 H   0  0  0  0  0  0  0  0  0  0  0  0
   14.6918   -7.7785    0.0000 H   0  0  0  0  0  0  0  0  0  0  0  0
   16.8181   -6.2728    0.0000 H   0  0  0  0  0  0  0  0  0  0  0  0
   18.2864   -3.2159    0.0000 H   0  0  0  0  0  0  0  0  0  0  0  0
   21.0850   -2.8766    0.0000 H   0  0  0  0  0  0  0  0  0  0  0  0
   19.1594   -2.7727    0.0000 H   0  0  0  0  0  0  0  0  0  0  0  0
   19.9915   -7.1257    0.0000 H   0  0  0  0  0  0  0  0  0  0  0  0
   22.4123   -8.6054    0.0000 H   0  0  0  0  0  0  0  0  0  0  0  0
   26.4249   -6.5685    0.0000 H   0  0  0  0  0  0  0  0  0  0  0  0
   25.2489   -4.2518    0.0000 H   0  0  0  0  0  0  0  0  0  0  0  0
   22.7354   -2.6141    0.0000 H   0  0  0  0  0  0  0  0  0  0  0  0
   19.9364   -8.4295    0.0000 H   0  0  0  0  0  0  0  0  0  0  0  0
  1  2  1  0
  2  3  1  0
  3  4  2  0
  4  5  1  0
  5  6  2  0
  6  7  1  0
  7  8  2  0
  7  9  1  0
  9 10  1  0
 10 11  1  0
 11 12  2  0
  9 13  1  0
 13 14  1  0
 14 15  2  0
 15 16  1  0
 16 17  2  0
 17 18  1  0
 16 19  1  0
 14 20  1  0
 20 21  1  0
 21 22  2  0
 22 23  1  0
 23 24  2  0
 24 25  1  0
 25 26  2  0
 25 27  1  0
  1 28  2  0
  1 29  1  0
 29 30  1  0
 30 31  1  0
 31 32  1  0
 32 33  2  0
 32 34  1  0
 34 35  1  0
 35 36  1  0
 36 37  1  0
 37 38  1  0
 38 39  1  0
 39 40  1  0
 40 41  2  3
 40 42  1  0
 35 43  1  0
 43 44  2  0
 43 45  1  0
 45 46  1  0
 46 47  1  0
 47 48  1  0
 48 49  1  0
 49 50  1  0
 50 51  1  0
 46 52  1  0
 52 53  2  0
 52 54  1  0
 54 55  1  0
 55 56  1  0
 55 57  1  0
 57 58  2  0
 57 59  1  0
 60 59  1  6
 60 61  1  0
 61 62  1  0
 62 63  1  0
 63 64  1  0
 60 65  1  0
 60 66  1  0
 66 67  2  0
 66 68  1  0
 68 69  1  0
 69 70  1  0
 70 71  1  0
 71 72  1  0
 72 73  1  0
 73 74  1  0
 74 75  2  3
 74 76  1  0
 69 77  1  0
 77 78  2  0
 77 79  1  0
 79 80  1  0
 80 81  1  0
 81 82  1  0
 82 83  1  0
 82 84  1  0
 80 85  1  0
 85 86  2  0
 85 87  1  0
 87 88  1  0
 88 89  1  0
 89 90  1  0
 90 91  2  0
 91 92  1  0
 92 93  2  0
 93 94  1  0
 94 95  2  0
 88 96  1  0
 96 97  2  0
 96 98  1  0
 98 99  1  0
 99100  1  0
100101  1  0
101102  1  0
102103  1  0
 99104  1  0
 99105  1  6
105106  2  0
105107  1  0
107108  1  0
108109  1  0
109110  1  0
108111  1  0
111112  2  0
111113  1  0
113114  1  0
114115  1  0
115116  1  0
116117  2  0
117118  1  0
118119  2  0
119120  1  0
119121  1  0
121122  2  0
114123  1  0
123124  2  0
123125  1  0
  8  3  1  0
 95 90  1  0
122116  1  0
 11  6  1  0
 64103  2  0
 18 13  2  0
 22  9  1  0
 26 21  1  0
  2126  1  0
  4127  1  0
  5128  1  0
  8129  1  0
 15130  1  0
 17131  1  0
 18132  1  0
 19133  1  0
 23134  1  0
 24135  1  0
 26136  1  0
 27137  1  0
 29138  1  0
 30139  1  0
 30140  1  0
 31141  1  0
 31142  1  0
 34143  1  0
 35144  1  1
 36145  1  0
 36146  1  0
 37147  1  0
 37148  1  0
 38149  1  0
 38150  1  0
 39151  1  0
 41152  1  0
 42153  1  0
 42154  1  0
 45155  1  0
 46156  1  6
 47157  1  0
 47158  1  0
 48159  1  0
 48160  1  0
 49161  1  0
 49162  1  0
 50163  1  0
 50164  1  0
 51165  1  0
 51166  1  0
 54167  1  0
 55168  1  1
 56169  1  0
 56170  1  0
 56171  1  0
 59172  1  0
 61173  1  0
 61174  1  0
 62175  1  0
 62176  1  0
 63177  1  0
 63178  1  0
 64179  1  0
 65180  1  0
 65181  1  0
 65182  1  0
 68183  1  0
 69184  1  1
 70185  1  0
 70186  1  0
 71187  1  0
 71188  1  0
 72189  1  0
 72190  1  0
 73191  1  0
 75192  1  0
 76193  1  0
 76194  1  0
 79195  1  0
 80196  1  1
 81197  1  0
 81198  1  0
 82199  1  0
 83200  1  0
 83201  1  0
 83202  1  0
 84203  1  0
 84204  1  0
 84205  1  0
 87206  1  0
 88207  1  1
 89208  1  0
 89209  1  0
 91210  1  0
 92211  1  0
 93212  1  0
 94213  1  0
 95214  1  0
 98215  1  0
100216  1  0
100217  1  0
101218  1  0
101219  1  0
102220  1  0
102221  1  0
103222  1  0
104223  1  0
104224  1  0
104225  1  0
107226  1  0
108227  1  6
109228  1  0
109229  1  0
110230  1  0
113231  1  0
114232  1  1
115233  1  0
115234  1  0
117235  1  0
118236  1  0
120237  1  0
121238  1  0
122239  1  0
125240  1  0
M  END
