
     RDKit          2D

250258  0  0  0  0  0  0  0  0999 V2000
  -18.0586    1.4298    0.0000 C   0  0  0  0  0  0  0  0  0  0  0  0
  -19.5526    1.5639    0.0000 N   0  0  0  0  0  0  0  0  0  0  0  0
  -20.1834    2.9248    0.0000 C   0  0  0  0  0  0  0  0  0  0  0  0
  -19.3203    4.1516    0.0000 C   0  0  0  0  0  0  0  0  0  0  0  0
  -19.9511    5.5125    0.0000 C   0  0  0  0  0  0  0  0  0  0  0  0
  -21.4451    5.6466    0.0000 C   0  0  0  0  0  0  0  0  0  0  0  0
  -22.3083    4.4199    0.0000 C   0  0  0  0  0  0  0  0  0  0  0  0
  -21.6774    3.0590    0.0000 C   0  0  0  0  0  0  0  0  0  0  0  0
  -23.7417    4.8617    0.0000 C   0  0  0  0  0  0  0  0  0  0  0  0
  -23.7645    6.3615    0.0000 O   0  0  0  0  0  0  0  0  0  0  0  0
  -22.3451    6.8467    0.0000 C   0  0  0  0  0  0  0  0  0  0  0  0
  -21.9032    8.2801    0.0000 O   0  0  0  0  0  0  0  0  0  0  0  0
  -25.1211    5.4510    0.0000 C   0  0  0  0  0  0  0  0  0  0  0  0
  -26.3211    4.5510    0.0000 C   0  0  0  0  0  0  0  0  0  0  0  0
  -27.7005    5.1402    0.0000 C   0  0  0  0  0  0  0  0  0  0  0  0
  -27.8800    6.6295    0.0000 C   0  0  0  0  0  0  0  0  0  0  0  0
  -26.6799    7.5294    0.0000 C   0  0  0  0  0  0  0  0  0  0  0  0
  -25.3005    6.9402    0.0000 C   0  0  0  0  0  0  0  0  0  0  0  0
  -29.2594    7.2187    0.0000 O   0  0  0  0  0  0  0  0  0  0  0  0
  -26.1417    3.0617    0.0000 O   0  0  0  0  0  0  0  0  0  0  0  0
  -24.7623    2.4725    0.0000 C   0  0  0  0  0  0  0  0  0  0  0  0
  -23.5623    3.3725    0.0000 C   0  0  0  0  0  0  0  0  0  0  0  0
  -22.7429    2.3632    0.0000 C   0  0  0  0  0  0  0  0  0  0  0  0
  -22.6472    1.5690    0.0000 C   0  0  0  0  0  0  0  0  0  0  0  0
  -23.2872    1.0890    0.0000 C   0  0  0  0  0  0  0  0  0  0  0  0
  -24.0229    1.4033    0.0000 C   0  0  0  0  0  0  0  0  0  0  0  0
  -23.0241   -1.0952    0.0000 O   0  0  0  0  0  0  0  0  0  0  0  0
  -17.1955    2.6565    0.0000 S   0  0  0  0  0  0  0  0  0  0  0  0
  -17.4278    0.0689    0.0000 N   0  0  0  0  0  0  0  0  0  0  0  0
  -15.9338   -0.0653    0.0000 C   0  0  0  0  0  0  0  0  0  0  0  0
  -15.3030   -1.4262    0.0000 C   0  0  0  0  0  0  0  0  0  0  0  0
  -13.8090   -1.5603    0.0000 O   0  0  0  0  0  0  0  0  0  0  0  0
  -13.1782   -2.9212    0.0000 C   0  0  0  0  0  0  0  0  0  0  0  0
  -11.6842   -3.0554    0.0000 O   0  0  0  0  0  0  0  0  0  0  0  0
  -11.0534   -4.4163    0.0000 C   0  0  0  0  0  0  0  0  0  0  0  0
   -9.5594   -4.5504    0.0000 C   0  0  0  0  0  0  0  0  0  0  0  0
   -8.9286   -5.9113    0.0000 O   0  0  0  0  0  0  0  0  0  0  0  0
   -7.4346   -6.0455    0.0000 C   0  0  0  0  0  0  0  0  0  0  0  0
   -6.8038   -7.4064    0.0000 C   0  0  0  0  0  0  0  0  0  0  0  0
   -5.3098   -7.5405    0.0000 C   0  0  0  0  0  0  0  0  0  0  0  0
   -4.9437   -6.0859    0.0000 O   0  0  0  0  0  0  0  0  0  0  0  0
   -4.6789   -8.9014    0.0000 N   0  0  0  0  0  0  0  0  0  0  0  0
   -3.1850   -9.0356    0.0000 C   0  0  0  0  0  0  0  0  0  0  0  0
   -3.6771   -7.6186    0.0000 C   0  0  0  0  0  0  0  0  0  0  0  0
   -3.7298   -6.1195    0.0000 C   0  0  0  0  0  0  0  0  0  0  0  0
   -3.3383   -4.6715    0.0000 C   0  0  0  0  0  0  0  0  0  0  0  0
   -2.5373   -3.4033    0.0000 C   0  0  0  0  0  0  0  0  0  0  0  0
   -3.9217  -10.3422    0.0000 C   0  0  0  0  0  0  0  0  0  0  0  0
   -2.2970  -10.2445    0.0000 C   0  0  0  0  0  0  0  0  0  0  0  0
   -3.3601  -11.3027    0.0000 O   0  0  0  0  0  0  0  0  0  0  0  0
   -1.0921  -11.1380    0.0000 N   0  0  0  0  0  0  0  0  0  0  0  0
    0.3226  -11.6366    0.0000 C   0  0  0  0  0  0  0  0  0  0  0  0
    1.8214  -11.6961    0.0000 C   0  0  0  0  0  0  0  0  0  0  0  0
    1.9859  -13.1871    0.0000 O   0  0  0  0  0  0  0  0  0  0  0  0
    3.2712  -11.3112    0.0000 N   0  0  0  0  0  0  0  0  0  0  0  0
    4.5431  -10.5161    0.0000 C   0  0  0  0  0  0  0  0  0  0  0  0
    5.9809  -10.9436    0.0000 C   0  0  0  0  0  0  0  0  0  0  0  0
    5.5241   -9.3814    0.0000 C   0  0  0  0  0  0  0  0  0  0  0  0
    6.7924  -10.1823    0.0000 O   0  0  0  0  0  0  0  0  0  0  0  0
    6.1271   -8.0079    0.0000 N   0  0  0  0  0  0  0  0  0  0  0  0
    6.2984   -6.5177    0.0000 C   0  0  0  0  0  0  0  0  0  0  0  0
    7.5291   -5.6601    0.0000 C   0  0  0  0  0  0  0  0  0  0  0  0
    8.8871   -6.2972    0.0000 C   0  0  0  0  0  0  0  0  0  0  0  0
    9.0144   -7.7918    0.0000 C   0  0  0  0  0  0  0  0  0  0  0  0
   10.3724   -8.4288    0.0000 C   0  0  0  0  0  0  0  0  0  0  0  0
   11.6031   -7.5712    0.0000 C   0  0  0  0  0  0  0  0  0  0  0  0
   11.4758   -6.0766    0.0000 C   0  0  0  0  0  0  0  0  0  0  0  0
   10.1178   -5.4396    0.0000 C   0  0  0  0  0  0  0  0  0  0  0  0
    6.0229   -5.0432    0.0000 C   0  0  0  0  0  0  0  0  0  0  0  0
    7.1120   -4.9450    0.0000 O   0  0  0  0  0  0  0  0  0  0  0  0
    5.3250   -3.7155    0.0000 N   0  0  0  0  0  0  0  0  0  0  0  0
    4.2668   -2.6524    0.0000 C   0  0  0  0  0  0  0  0  0  0  0  0
    2.9422   -1.9484    0.0000 C   0  0  0  0  0  0  0  0  0  0  0  0
    1.4690   -1.6662    0.0000 C   0  0  0  0  0  0  0  0  0  0  0  0
   -0.0219   -1.8308    0.0000 C   0  0  0  0  0  0  0  0  0  0  0  0
   -1.3981   -2.4275    0.0000 C   0  0  0  0  0  0  0  0  0  0  0  0
    3.7727   -1.1749    0.0000 C   0  0  0  0  0  0  0  0  0  0  0  0
    3.1719   -0.0318    0.0000 C   0  0  0  0  0  0  0  0  0  0  0  0
    2.9348    1.2375    0.0000 C   0  0  0  0  0  0  0  0  0  0  0  0
    3.0823    2.5204    0.0000 C   0  0  0  0  0  0  0  0  0  0  0  0
    5.8241   -2.6961    0.0000 C   0  0  0  0  0  0  0  0  0  0  0  0
    5.0927   -4.7710    0.0000 O   0  0  0  0  0  0  0  0  0  0  0  0
    7.0924   -2.9391    0.0000 N   0  0  0  0  0  0  0  0  0  0  0  0
    8.3759   -2.7974    0.0000 C   0  0  0  0  0  0  0  0  0  0  0  0
    9.6654   -4.4830    0.0000 C   0  0  0  0  0  0  0  0  0  0  0  0
    9.3466   -5.9487    0.0000 C   0  0  0  0  0  0  0  0  0  0  0  0
   10.4565   -6.9577    0.0000 N   0  0  0  0  0  0  0  0  0  0  0  0
    7.9178   -6.4054    0.0000 O   0  0  0  0  0  0  0  0  0  0  0  0
    9.5607   -2.2837    0.0000 C   0  0  0  0  0  0  0  0  0  0  0  0
   10.8760   -4.0428    0.0000 O   0  0  0  0  0  0  0  0  0  0  0  0
   10.5414   -1.4436    0.0000 N   0  0  0  0  0  0  0  0  0  0  0  0
   11.2309   -0.3518    0.0000 C   0  0  0  0  0  0  0  0  0  0  0  0
   13.3528   -0.3945    0.0000 C   0  0  0  0  0  0  0  0  0  0  0  0
   14.2999   -1.5577    0.0000 C   0  0  0  0  0  0  0  0  0  0  0  0
   15.7808   -1.3190    0.0000 C   0  0  0  0  0  0  0  0  0  0  0  0
   14.7921   -2.9747    0.0000 C   0  0  0  0  0  0  0  0  0  0  0  0
   11.5680    0.8948    0.0000 C   0  0  0  0  0  0  0  0  0  0  0  0
   13.7536    0.6435    0.0000 O   0  0  0  0  0  0  0  0  0  0  0  0
   11.5227    2.1853    0.0000 N   0  0  0  0  0  0  0  0  0  0  0  0
   11.0989    3.4052    0.0000 C   0  0  0  0  0  0  0  0  0  0  0  0
   12.4553    5.0374    0.0000 C   0  0  0  0  0  0  0  0  0  0  0  0
   13.9552    5.0527    0.0000 C   0  0  0  0  0  0  0  0  0  0  0  0
   14.7184    3.7614    0.0000 C   0  0  0  0  0  0  0  0  0  0  0  0
   16.2183    3.7767    0.0000 C   0  0  0  0  0  0  0  0  0  0  0  0
   16.9551    5.0833    0.0000 C   0  0  0  0  0  0  0  0  0  0  0  0
   16.1919    6.3746    0.0000 C   0  0  0  0  0  0  0  0  0  0  0  0
   14.6920    6.3593    0.0000 C   0  0  0  0  0  0  0  0  0  0  0  0
   10.3345    4.4459    0.0000 C   0  0  0  0  0  0  0  0  0  0  0  0
   11.8937    5.9980    0.0000 O   0  0  0  0  0  0  0  0  0  0  0  0
    9.2972    5.2151    0.0000 N   0  0  0  0  0  0  0  0  0  0  0  0
    8.0793    5.6444    0.0000 C   0  0  0  0  0  0  0  0  0  0  0  0
    6.7890    5.6956    0.0000 C   0  0  0  0  0  0  0  0  0  0  0  0
    5.5409    5.3642    0.0000 C   0  0  0  0  0  0  0  0  0  0  0  0
    4.4459    4.6797    0.0000 C   0  0  0  0  0  0  0  0  0  0  0  0
    3.6014    3.7028    0.0000 C   0  0  0  0  0  0  0  0  0  0  0  0
    9.2474    7.4163    0.0000 C   0  0  0  0  0  0  0  0  0  0  0  0
    7.6488    7.7225    0.0000 C   0  0  0  0  0  0  0  0  0  0  0  0
    6.2580    8.2842    0.0000 O   0  0  0  0  0  0  0  0  0  0  0  0
    8.5721    8.9048    0.0000 N   0  0  0  0  0  0  0  0  0  0  0  0
    8.0099   10.2954    0.0000 C   0  0  0  0  0  0  0  0  0  0  0  0
    7.0060   11.4099    0.0000 C   0  0  0  0  0  0  0  0  0  0  0  0
    6.9270   12.9078    0.0000 O   0  0  0  0  0  0  0  0  0  0  0  0
    8.9331   11.4776    0.0000 C   0  0  0  0  0  0  0  0  0  0  0  0
   10.4186   11.2692    0.0000 O   0  0  0  0  0  0  0  0  0  0  0  0
    8.3709   12.8683    0.0000 N   0  0  0  0  0  0  0  0  0  0  0  0
    9.2942   14.0505    0.0000 C   0  0  0  0  0  0  0  0  0  0  0  0
   10.5661   14.8456    0.0000 C   0  0  0  0  0  0  0  0  0  0  0  0
   11.8906   14.1417    0.0000 C   0  0  0  0  0  0  0  0  0  0  0  0
    8.7320   15.4412    0.0000 C   0  0  0  0  0  0  0  0  0  0  0  0
    9.5042   16.7271    0.0000 O   0  0  0  0  0  0  0  0  0  0  0  0
    7.2465   15.6496    0.0000 O   0  0  0  0  0  0  0  0  0  0  0  0
  -20.2598    0.2411    0.0000 H   0  0  0  0  0  0  0  0  0  0  0  0
  -17.8263    4.0175    0.0000 H   0  0  0  0  0  0  0  0  0  0  0  0
  -19.0879    6.7393    0.0000 H   0  0  0  0  0  0  0  0  0  0  0  0
  -22.2181    1.6598    0.0000 H   0  0  0  0  0  0  0  0  0  0  0  0
  -28.9006    4.2402    0.0000 H   0  0  0  0  0  0  0  0  0  0  0  0
  -26.8593    9.0187    0.0000 H   0  0  0  0  0  0  0  0  0  0  0  0
  -24.1005    7.8402    0.0000 H   0  0  0  0  0  0  0  0  0  0  0  0
  -29.4388    8.7079    0.0000 H   0  0  0  0  0  0  0  0  0  0  0  0
  -20.9829    3.6832    0.0000 H   0  0  0  0  0  0  0  0  0  0  0  0
  -20.7062    0.5410    0.0000 H   0  0  0  0  0  0  0  0  0  0  0  0
  -25.7829    0.0833    0.0000 H   0  0  0  0  0  0  0  0  0  0  0  0
  -24.2241   -1.9952    0.0000 H   0  0  0  0  0  0  0  0  0  0  0  0
  -18.2910   -1.1579    0.0000 H   0  0  0  0  0  0  0  0  0  0  0  0
  -16.0611    1.4293    0.0000 H   0  0  0  0  0  0  0  0  0  0  0  0
  -14.4840    0.3197    0.0000 H   0  0  0  0  0  0  0  0  0  0  0  0
  -16.7528   -1.8111    0.0000 H   0  0  0  0  0  0  0  0  0  0  0  0
  -15.3588   -2.9251    0.0000 H   0  0  0  0  0  0  0  0  0  0  0  0
  -14.5702   -3.4800    0.0000 H   0  0  0  0  0  0  0  0  0  0  0  0
  -13.2340   -4.4202    0.0000 H   0  0  0  0  0  0  0  0  0  0  0  0
  -12.4454   -4.9750    0.0000 H   0  0  0  0  0  0  0  0  0  0  0  0
  -10.9261   -5.9109    0.0000 H   0  0  0  0  0  0  0  0  0  0  0  0
   -9.6867   -3.0558    0.0000 H   0  0  0  0  0  0  0  0  0  0  0  0
   -8.1673   -3.9916    0.0000 H   0  0  0  0  0  0  0  0  0  0  0  0
   -7.3788   -4.5465    0.0000 H   0  0  0  0  0  0  0  0  0  0  0  0
   -5.9848   -5.6605    0.0000 H   0  0  0  0  0  0  0  0  0  0  0  0
   -8.2535   -7.7913    0.0000 H   0  0  0  0  0  0  0  0  0  0  0  0
   -6.6764   -8.9010    0.0000 H   0  0  0  0  0  0  0  0  0  0  0  0
   -5.6852  -10.0138    0.0000 H   0  0  0  0  0  0  0  0  0  0  0  0
   -4.9835   -8.3558    0.0000 H   0  0  0  0  0  0  0  0  0  0  0  0
   -4.9856   -6.8851    0.0000 H   0  0  0  0  0  0  0  0  0  0  0  0
   -5.2291   -6.0748    0.0000 H   0  0  0  0  0  0  0  0  0  0  0  0
   -4.9961   -5.3155    0.0000 H   0  0  0  0  0  0  0  0  0  0  0  0
   -4.8372   -4.7279    0.0000 H   0  0  0  0  0  0  0  0  0  0  0  0
   -4.1649   -3.4199    0.0000 H   0  0  0  0  0  0  0  0  0  0  0  0
   -3.6720   -2.4223    0.0000 H   0  0  0  0  0  0  0  0  0  0  0  0
   -5.4086  -10.5402    0.0000 H   0  0  0  0  0  0  0  0  0  0  0  0
   -4.1671  -11.8220    0.0000 H   0  0  0  0  0  0  0  0  0  0  0  0
   -2.6697  -11.1683    0.0000 H   0  0  0  0  0  0  0  0  0  0  0  0
   -1.7960  -12.4626    0.0000 H   0  0  0  0  0  0  0  0  0  0  0  0
    0.8848  -13.0273    0.0000 H   0  0  0  0  0  0  0  0  0  0  0  0
   -0.7138  -12.7210    0.0000 H   0  0  0  0  0  0  0  0  0  0  0  0
    3.8679  -12.6874    0.0000 H   0  0  0  0  0  0  0  0  0  0  0  0
    4.7447  -12.0025    0.0000 H   0  0  0  0  0  0  0  0  0  0  0  0
    6.3295  -12.4025    0.0000 H   0  0  0  0  0  0  0  0  0  0  0  0
    7.4782  -10.8536    0.0000 H   0  0  0  0  0  0  0  0  0  0  0  0
    6.5077   -9.5392    0.0000 H   0  0  0  0  0  0  0  0  0  0  0  0
    7.5165   -8.5730    0.0000 H   0  0  0  0  0  0  0  0  0  0  0  0
    7.5863   -7.2868    0.0000 H   0  0  0  0  0  0  0  0  0  0  0  0
    8.5354   -4.5478    0.0000 H   0  0  0  0  0  0  0  0  0  0  0  0
    6.9222   -4.2884    0.0000 H   0  0  0  0  0  0  0  0  0  0  0  0
    7.8975   -8.7929    0.0000 H   0  0  0  0  0  0  0  0  0  0  0  0
   10.4998   -9.9234    0.0000 H   0  0  0  0  0  0  0  0  0  0  0  0
   12.9611   -8.2083    0.0000 H   0  0  0  0  0  0  0  0  0  0  0  0
   12.7065   -5.2191    0.0000 H   0  0  0  0  0  0  0  0  0  0  0  0
   10.7072   -4.0603    0.0000 H   0  0  0  0  0  0  0  0  0  0  0  0
    6.5340   -2.8275    0.0000 H   0  0  0  0  0  0  0  0  0  0  0  0
    2.4183   -0.5429    0.0000 H   0  0  0  0  0  0  0  0  0  0  0  0
    4.1287   -1.0306    0.0000 H   0  0  0  0  0  0  0  0  0  0  0  0
    0.5541   -0.4775    0.0000 H   0  0  0  0  0  0  0  0  0  0  0  0
    1.8351   -0.2116    0.0000 H   0  0  0  0  0  0  0  0  0  0  0  0
   -1.1318   -0.8217    0.0000 H   0  0  0  0  0  0  0  0  0  0  0  0
    0.0823   -0.3344    0.0000 H   0  0  0  0  0  0  0  0  0  0  0  0
   -2.1933   -1.1555    0.0000 H   0  0  0  0  0  0  0  0  0  0  0  0
    2.6748   -2.9911    0.0000 H   0  0  0  0  0  0  0  0  0  0  0  0
    1.7115   -1.4961    0.0000 H   0  0  0  0  0  0  0  0  0  0  0  0
    1.2250   -1.0342    0.0000 H   0  0  0  0  0  0  0  0  0  0  0  0
    1.1076    0.2688    0.0000 H   0  0  0  0  0  0  0  0  0  0  0  0
    0.8336    0.6787    0.0000 H   0  0  0  0  0  0  0  0  0  0  0  0
    0.9474    1.9820    0.0000 H   0  0  0  0  0  0  0  0  0  0  0  0
    0.9585    3.0947    0.0000 H   0  0  0  0  0  0  0  0  0  0  0  0
    7.7158   -4.9898    0.0000 H   0  0  0  0  0  0  0  0  0  0  0  0
    8.4513   -4.9704    0.0000 H   0  0  0  0  0  0  0  0  0  0  0  0
   11.0535   -5.0515    0.0000 H   0  0  0  0  0  0  0  0  0  0  0  0
   10.6150   -3.3218    0.0000 H   0  0  0  0  0  0  0  0  0  0  0  0
   10.5018   -8.4570    0.0000 H   0  0  0  0  0  0  0  0  0  0  0  0
   11.9533   -6.8603    0.0000 H   0  0  0  0  0  0  0  0  0  0  0  0
   12.2057   -2.8825    0.0000 H   0  0  0  0  0  0  0  0  0  0  0  0
   12.5397   -1.9763    0.0000 H   0  0  0  0  0  0  0  0  0  0  0  0
   14.5639    0.4904    0.0000 H   0  0  0  0  0  0  0  0  0  0  0  0
   13.2181    1.0994    0.0000 H   0  0  0  0  0  0  0  0  0  0  0  0
   13.0888   -2.4427    0.0000 H   0  0  0  0  0  0  0  0  0  0  0  0
   16.8626   -2.3581    0.0000 H   0  0  0  0  0  0  0  0  0  0  0  0
   17.0908   -0.5883    0.0000 H   0  0  0  0  0  0  0  0  0  0  0  0
   15.4650    0.1473    0.0000 H   0  0  0  0  0  0  0  0  0  0  0  0
   16.2199   -3.4344    0.0000 H   0  0  0  0  0  0  0  0  0  0  0  0
   14.7700   -4.4745    0.0000 H   0  0  0  0  0  0  0  0  0  0  0  0
   13.3112   -3.2133    0.0000 H   0  0  0  0  0  0  0  0  0  0  0  0
   13.7078    2.4076    0.0000 H   0  0  0  0  0  0  0  0  0  0  0  0
   13.2126    3.5967    0.0000 H   0  0  0  0  0  0  0  0  0  0  0  0
   12.7007    6.5172    0.0000 H   0  0  0  0  0  0  0  0  0  0  0  0
   11.2033    5.8636    0.0000 H   0  0  0  0  0  0  0  0  0  0  0  0
   14.1464    2.3747    0.0000 H   0  0  0  0  0  0  0  0  0  0  0  0
   16.9815    2.4853    0.0000 H   0  0  0  0  0  0  0  0  0  0  0  0
   18.4550    5.0985    0.0000 H   0  0  0  0  0  0  0  0  0  0  0  0
   16.9286    7.6812    0.0000 H   0  0  0  0  0  0  0  0  0  0  0  0
   13.9288    7.6507    0.0000 H   0  0  0  0  0  0  0  0  0  0  0  0
   10.3297    7.1578    0.0000 H   0  0  0  0  0  0  0  0  0  0  0  0
    5.7651    7.5546    0.0000 H   0  0  0  0  0  0  0  0  0  0  0  0
    7.0383    7.8555    0.0000 H   0  0  0  0  0  0  0  0  0  0  0  0
    4.1253    6.9847    0.0000 H   0  0  0  0  0  0  0  0  0  0  0  0
    5.1425    7.5017    0.0000 H   0  0  0  0  0  0  0  0  0  0  0  0
    2.5528    5.6388    0.0000 H   0  0  0  0  0  0  0  0  0  0  0  0
    3.6092    6.6620    0.0000 H   0  0  0  0  0  0  0  0  0  0  0  0
    1.7413    4.8776    0.0000 H   0  0  0  0  0  0  0  0  0  0  0  0
    9.1874    8.9151    0.0000 H   0  0  0  0  0  0  0  0  0  0  0  0
   10.6631    7.9120    0.0000 H   0  0  0  0  0  0  0  0  0  0  0  0
   10.4015    6.4582    0.0000 H   0  0  0  0  0  0  0  0  0  0  0  0
   10.0719    8.8789    0.0000 H   0  0  0  0  0  0  0  0  0  0  0  0
    6.7380    9.5003    0.0000 H   0  0  0  0  0  0  0  0  0  0  0  0
    5.6814   12.1139    0.0000 H   0  0  0  0  0  0  0  0  0  0  0  0
    6.0827   10.2277    0.0000 H   0  0  0  0  0  0  0  0  0  0  0  0
    6.4652   13.9511    0.0000 H   0  0  0  0  0  0  0  0  0  0  0  0
    6.9220   13.2562    0.0000 H   0  0  0  0  0  0  0  0  0  0  0  0
   10.1548   12.8219    0.0000 H   0  0  0  0  0  0  0  0  0  0  0  0
   11.4893   16.0278    0.0000 H   0  0  0  0  0  0  0  0  0  0  0  0
    9.7055   16.0742    0.0000 H   0  0  0  0  0  0  0  0  0  0  0  0
   13.1625   14.9369    0.0000 H   0  0  0  0  0  0  0  0  0  0  0  0
   12.8946   13.0272    0.0000 H   0  0  0  0  0  0  0  0  0  0  0  0
   11.1184   12.8558    0.0000 H   0  0  0  0  0  0  0  0  0  0  0  0
  1  2  1  0
  2  3  1  0
  3  4  2  0
  4  5  1  0
  5  6  2  0
  6  7  1  0
  7  8  2  0
  7  9  1  0
  9 10  1  0
 10 11  1  0
 11 12  2  0
  9 13  1  0
 13 14  1  0
 14 15  2  0
 15 16  1  0
 16 17  2  0
 17 18  1  0
 16 19  1  0
 14 20  1  0
 20 21  1  0
 21 22  2  0
 22 23  1  0
 23 24  2  0
 24 25  1  0
 25 26  2  0
 25 27  1  0
  1 28  2  0
  1 29  1  0
 29 30  1  0
 30 31  1  0
 31 32  1  0
 32 33  1  0
 33 34  1  0
 34 35  1  0
 35 36  1  0
 36 37  1  0
 37 38  1  0
 38 39  1  0
 39 40  1  0
 40 41  2  0
 40 42  1  0
 43 42  1  1
 43 44  1  0
 44 45  1  0
 45 46  1  0
 46 47  1  0
 43 48  1  0
 43 49  1  0
 49 50  2  0
 49 51  1  0
 51 52  1  0
 52 53  1  0
 53 54  2  0
 53 55  1  0
 55 56  1  0
 56 57  1  0
 56 58  1  0
 58 59  2  0
 58 60  1  0
 60 61  1  0
 61 62  1  0
 62 63  1  0
 63 64  2  0
 64 65  1  0
 65 66  2  0
 66 67  1  0
 67 68  2  0
 61 69  1  0
 69 70  2  0
 69 71  1  0
 71 72  1  0
 72 73  1  0
 73 74  1  0
 74 75  1  0
 75 76  1  0
 72 77  1  0
 77 78  1  0
 78 79  1  0
 79 80  1  0
 72 81  1  0
 81 82  2  0
 81 83  1  0
 83 84  1  0
 84 85  1  0
 85 86  1  0
 86 87  1  0
 86 88  2  0
 84 89  1  0
 89 90  2  0
 89 91  1  0
 91 92  1  0
 92 93  1  0
 93 94  1  0
 94 95  1  0
 94 96  1  0
 92 97  1  0
 97 98  2  0
 97 99  1  0
 99100  1  0
100101  1  0
101102  1  0
102103  2  0
103104  1  0
104105  2  0
105106  1  0
106107  2  0
100108  1  0
108109  2  0
108110  1  0
110111  1  0
111112  1  0
112113  1  0
113114  1  0
114115  1  0
111116  1  0
111117  1  6
117118  2  0
117119  1  0
119120  1  0
120121  1  0
121122  1  0
120123  1  0
123124  2  0
123125  1  0
125126  1  0
126127  1  0
127128  1  0
126129  1  0
129130  2  0
129131  1  0
  8  3  1  0
 68 63  1  0
107102  1  0
 11  6  1  0
 47 76  2  0
 18 13  2  0
 80115  2  0
 22  9  1  0
 26 21  1  0
  2132  1  0
  4133  1  0
  5134  1  0
  8135  1  0
 15136  1  0
 17137  1  0
 18138  1  0
 19139  1  0
 23140  1  0
 24141  1  0
 26142  1  0
 27143  1  0
 29144  1  0
 30145  1  0
 30146  1  0
 31147  1  0
 31148  1  0
 33149  1  0
 33150  1  0
 35151  1  0
 35152  1  0
 36153  1  0
 36154  1  0
 38155  1  0
 38156  1  0
 39157  1  0
 39158  1  0
 42159  1  0
 44160  1  0
 44161  1  0
 45162  1  0
 45163  1  0
 46164  1  0
 46165  1  0
 47166  1  0
 48167  1  0
 48168  1  0
 48169  1  0
 51170  1  0
 52171  1  0
 52172  1  0
 55173  1  0
 56174  1  6
 57175  1  0
 57176  1  0
 57177  1  0
 60178  1  0
 61179  1  6
 62180  1  0
 62181  1  0
 64182  1  0
 65183  1  0
 66184  1  0
 67185  1  0
 68186  1  0
 71187  1  0
 73188  1  0
 73189  1  0
 74190  1  0
 74191  1  0
 75192  1  0
 75193  1  0
 76194  1  0
 77195  1  0
 77196  1  0
 78197  1  0
 78198  1  0
 79199  1  0
 79200  1  0
 80201  1  0
 83202  1  0
 84203  1  6
 85204  1  0
 85205  1  0
 87206  1  0
 87207  1  0
 91208  1  0
 92209  1  6
 93210  1  0
 93211  1  0
 94212  1  0
 95213  1  0
 95214  1  0
 95215  1  0
 96216  1  0
 96217  1  0
 96218  1  0
 99219  1  0
100220  1  6
101221  1  0
101222  1  0
103223  1  0
104224  1  0
105225  1  0
106226  1  0
107227  1  0
110228  1  0
112229  1  0
112230  1  0
113231  1  0
113232  1  0
114233  1  0
114234  1  0
115235  1  0
116236  1  0
116237  1  0
116238  1  0
119239  1  0
120240  1  1
121241  1  0
121242  1  0
122243  1  0
125244  1  0
126245  1  6
127246  1  0
127247  1  0
128248  1  0
128249  1  0
128250  1  0
M  CHG  1 131  -1
M  END
