
     RDKit          2D

388393  0  0  0  0  0  0  0  0999 V2000
   12.8381  -11.4500    0.0000 C   0  0  0  0  0  0  0  0  0  0  0  0
   13.1459  -12.9181    0.0000 N   0  0  0  0  0  0  0  0  0  0  0  0
   12.0283  -13.9186    0.0000 C   0  0  0  0  0  0  0  0  0  0  0  0
   10.6030  -13.4511    0.0000 C   0  0  0  0  0  0  0  0  0  0  0  0
    9.4855  -14.4516    0.0000 C   0  0  0  0  0  0  0  0  0  0  0  0
    9.7932  -15.9197    0.0000 C   0  0  0  0  0  0  0  0  0  0  0  0
   11.2185  -16.3872    0.0000 C   0  0  0  0  0  0  0  0  0  0  0  0
   12.3361  -15.3867    0.0000 C   0  0  0  0  0  0  0  0  0  0  0  0
   11.2143  -17.8872    0.0000 C   0  0  0  0  0  0  0  0  0  0  0  0
    9.7864  -18.3467    0.0000 O   0  0  0  0  0  0  0  0  0  0  0  0
    8.9081  -17.1307    0.0000 C   0  0  0  0  0  0  0  0  0  0  0  0
    7.4081  -17.1265    0.0000 O   0  0  0  0  0  0  0  0  0  0  0  0
   11.0533  -19.3786    0.0000 C   0  0  0  0  0  0  0  0  0  0  0  0
   12.2643  -20.2637    0.0000 C   0  0  0  0  0  0  0  0  0  0  0  0
   12.1033  -21.7550    0.0000 C   0  0  0  0  0  0  0  0  0  0  0  0
   10.7313  -22.3612    0.0000 C   0  0  0  0  0  0  0  0  0  0  0  0
    9.5203  -21.4762    0.0000 C   0  0  0  0  0  0  0  0  0  0  0  0
    9.6813  -19.9848    0.0000 C   0  0  0  0  0  0  0  0  0  0  0  0
   10.5703  -23.8526    0.0000 O   0  0  0  0  0  0  0  0  0  0  0  0
   13.6364  -19.6574    0.0000 O   0  0  0  0  0  0  0  0  0  0  0  0
   13.7973  -18.1661    0.0000 C   0  0  0  0  0  0  0  0  0  0  0  0
   12.5863  -17.2810    0.0000 C   0  0  0  0  0  0  0  0  0  0  0  0
   13.3125  -16.2027    0.0000 C   0  0  0  0  0  0  0  0  0  0  0  0
   14.0442  -15.8794    0.0000 C   0  0  0  0  0  0  0  0  0  0  0  0
   14.6901  -16.3514    0.0000 C   0  0  0  0  0  0  0  0  0  0  0  0
   14.6042  -17.1468    0.0000 C   0  0  0  0  0  0  0  0  0  0  0  0
   16.7024  -15.4623    0.0000 O   0  0  0  0  0  0  0  0  0  0  0  0
   11.4129  -10.9824    0.0000 S   0  0  0  0  0  0  0  0  0  0  0  0
   13.9557  -10.4494    0.0000 N   0  0  0  0  0  0  0  0  0  0  0  0
   13.6479   -8.9813    0.0000 C   0  0  0  0  0  0  0  0  0  0  0  0
   14.7655   -7.9808    0.0000 C   0  0  0  0  0  0  0  0  0  0  0  0
   14.4578   -6.5127    0.0000 C   0  0  0  0  0  0  0  0  0  0  0  0
   13.1113   -6.4148    0.0000 O   0  0  0  0  0  0  0  0  0  0  0  0
   15.5753   -5.5121    0.0000 N   0  0  0  0  0  0  0  0  0  0  0  0
   15.2676   -4.0440    0.0000 C   0  0  0  0  0  0  0  0  0  0  0  0
   14.0888   -4.9717    0.0000 C   0  0  0  0  0  0  0  0  0  0  0  0
   12.7558   -5.6595    0.0000 C   0  0  0  0  0  0  0  0  0  0  0  0
   11.3167   -6.0826    0.0000 C   0  0  0  0  0  0  0  0  0  0  0  0
    9.8236   -6.2257    0.0000 C   0  0  0  0  0  0  0  0  0  0  0  0
    8.3303   -6.0837    0.0000 C   0  0  0  0  0  0  0  0  0  0  0  0
    6.8909   -5.6616    0.0000 C   0  0  0  0  0  0  0  0  0  0  0  0
    5.5574   -4.9747    0.0000 C   0  0  0  0  0  0  0  0  0  0  0  0
   16.7196   -4.4202    0.0000 C   0  0  0  0  0  0  0  0  0  0  0  0
   16.2495   -2.9101    0.0000 C   0  0  0  0  0  0  0  0  0  0  0  0
   17.5685   -3.6242    0.0000 O   0  0  0  0  0  0  0  0  0  0  0  0
   16.9990   -1.6108    0.0000 N   0  0  0  0  0  0  0  0  0  0  0  0
   17.4891   -0.1931    0.0000 C   0  0  0  0  0  0  0  0  0  0  0  0
   18.9140    0.2755    0.0000 C   0  0  0  0  0  0  0  0  0  0  0  0
   20.0323   -0.7243    0.0000 C   0  0  0  0  0  0  0  0  0  0  0  0
   21.4572   -0.2557    0.0000 C   0  0  0  0  0  0  0  0  0  0  0  0
   22.5755   -1.2555    0.0000 N   0  0  0  0  0  0  0  0  0  0  0  0
   24.0004   -0.7869    0.0000 C   0  0  0  0  0  0  0  0  0  0  0  0
   25.1187   -1.7867    0.0000 N   0  0  0  0  0  0  0  0  0  0  0  0
   24.3071    0.6814    0.0000 N   0  0  0  0  0  0  0  0  0  0  0  0
   17.7020    1.2917    0.0000 C   0  0  0  0  0  0  0  0  0  0  0  0
   19.1978    1.4041    0.0000 O   0  0  0  0  0  0  0  0  0  0  0  0
   17.6301    2.7900    0.0000 N   0  0  0  0  0  0  0  0  0  0  0  0
   17.2760    4.2476    0.0000 C   0  0  0  0  0  0  0  0  0  0  0  0
   18.2214    5.4122    0.0000 C   0  0  0  0  0  0  0  0  0  0  0  0
   19.7026    5.1757    0.0000 C   0  0  0  0  0  0  0  0  0  0  0  0
   20.6481    6.3402    0.0000 C   0  0  0  0  0  0  0  0  0  0  0  0
   22.1293    6.1038    0.0000 N   0  0  0  0  0  0  0  0  0  0  0  0
   23.0747    7.2683    0.0000 C   0  0  0  0  0  0  0  0  0  0  0  0
   24.5560    7.0318    0.0000 N   0  0  0  0  0  0  0  0  0  0  0  0
   22.5389    8.6693    0.0000 N   0  0  0  0  0  0  0  0  0  0  0  0
   16.6524    5.6118    0.0000 C   0  0  0  0  0  0  0  0  0  0  0  0
   17.8500    6.5150    0.0000 O   0  0  0  0  0  0  0  0  0  0  0  0
   15.7819    6.8334    0.0000 N   0  0  0  0  0  0  0  0  0  0  0  0
   14.6959    7.8681    0.0000 C   0  0  0  0  0  0  0  0  0  0  0  0
   14.8616    9.3589    0.0000 C   0  0  0  0  0  0  0  0  0  0  0  0
   16.2356    9.9608    0.0000 C   0  0  0  0  0  0  0  0  0  0  0  0
   16.4013   11.4516    0.0000 C   0  0  0  0  0  0  0  0  0  0  0  0
   17.7752   12.0535    0.0000 N   0  0  0  0  0  0  0  0  0  0  0  0
   15.1931   12.3406    0.0000 O   0  0  0  0  0  0  0  0  0  0  0  0
   13.4337    8.6786    0.0000 C   0  0  0  0  0  0  0  0  0  0  0  0
   13.9529   10.0859    0.0000 O   0  0  0  0  0  0  0  0  0  0  0  0
   12.0410    9.2356    0.0000 N   0  0  0  0  0  0  0  0  0  0  0  0
   10.5680    9.5190    0.0000 C   0  0  0  0  0  0  0  0  0  0  0  0
    9.9014   10.8627    0.0000 C   0  0  0  0  0  0  0  0  0  0  0  0
   10.7318   12.1119    0.0000 C   0  0  0  0  0  0  0  0  0  0  0  0
   10.0653   13.4556    0.0000 C   0  0  0  0  0  0  0  0  0  0  0  0
   10.8957   14.7048    0.0000 N   0  0  0  0  0  0  0  0  0  0  0  0
   10.2291   16.0485    0.0000 C   0  0  0  0  0  0  0  0  0  0  0  0
   11.0596   17.2977    0.0000 N   0  0  0  0  0  0  0  0  0  0  0  0
    8.7321   16.1432    0.0000 N   0  0  0  0  0  0  0  0  0  0  0  0
    9.0680    9.5185    0.0000 C   0  0  0  0  0  0  0  0  0  0  0  0
    8.7439   10.9830    0.0000 O   0  0  0  0  0  0  0  0  0  0  0  0
    7.5952    9.2341    0.0000 N   0  0  0  0  0  0  0  0  0  0  0  0
    6.2028    8.6761    0.0000 C   0  0  0  0  0  0  0  0  0  0  0  0
    4.9156    9.4461    0.0000 C   0  0  0  0  0  0  0  0  0  0  0  0
    4.9389   10.9459    0.0000 C   0  0  0  0  0  0  0  0  0  0  0  0
    3.6516   11.7160    0.0000 C   0  0  0  0  0  0  0  0  0  0  0  0
    3.6749   13.2158    0.0000 N   0  0  0  0  0  0  0  0  0  0  0  0
    2.3876   13.9859    0.0000 C   0  0  0  0  0  0  0  0  0  0  0  0
    2.4109   15.4857    0.0000 N   0  0  0  0  0  0  0  0  0  0  0  0
    1.0771   13.2561    0.0000 N   0  0  0  0  0  0  0  0  0  0  0  0
    4.9412    7.8647    0.0000 C   0  0  0  0  0  0  0  0  0  0  0  0
    3.8768    8.9215    0.0000 O   0  0  0  0  0  0  0  0  0  0  0  0
    3.8560    6.8292    0.0000 N   0  0  0  0  0  0  0  0  0  0  0  0
    2.9864    5.6070    0.0000 C   0  0  0  0  0  0  0  0  0  0  0  0
    1.4871    5.5589    0.0000 C   0  0  0  0  0  0  0  0  0  0  0  0
    0.6958    6.8332    0.0000 C   0  0  0  0  0  0  0  0  0  0  0  0
   -0.8034    6.7850    0.0000 C   0  0  0  0  0  0  0  0  0  0  0  0
   -1.5947    8.0593    0.0000 N   0  0  0  0  0  0  0  0  0  0  0  0
   -3.0939    8.0112    0.0000 C   0  0  0  0  0  0  0  0  0  0  0  0
   -3.8852    9.2855    0.0000 N   0  0  0  0  0  0  0  0  0  0  0  0
   -3.8018    6.6888    0.0000 N   0  0  0  0  0  0  0  0  0  0  0  0
    2.3637    4.2423    0.0000 C   0  0  0  0  0  0  0  0  0  0  0  0
    0.8969    4.5559    0.0000 O   0  0  0  0  0  0  0  0  0  0  0  0
    2.0106    2.7845    0.0000 N   0  0  0  0  0  0  0  0  0  0  0  0
    1.9398    1.2861    0.0000 C   0  0  0  0  0  0  0  0  0  0  0  0
    2.1537   -0.1985    0.0000 C   0  0  0  0  0  0  0  0  0  0  0  0
    2.6449   -1.6158    0.0000 C   0  0  0  0  0  0  0  0  0  0  0  0
    3.3953   -2.9146    0.0000 C   0  0  0  0  0  0  0  0  0  0  0  0
    4.3780   -4.0479    0.0000 C   0  0  0  0  0  0  0  0  0  0  0  0
    0.6287    2.0150    0.0000 C   0  0  0  0  0  0  0  0  0  0  0  0
    0.7045    0.4351    0.0000 C   0  0  0  0  0  0  0  0  0  0  0  0
    0.4586   -1.0446    0.0000 O   0  0  0  0  0  0  0  0  0  0  0  0
   -0.6501    1.0793    0.0000 N   0  0  0  0  0  0  0  0  0  0  0  0
   -1.8853    0.2283    0.0000 C   0  0  0  0  0  0  0  0  0  0  0  0
   -2.7549   -0.9939    0.0000 C   0  0  0  0  0  0  0  0  0  0  0  0
   -4.2482   -0.8518    0.0000 C   0  0  0  0  0  0  0  0  0  0  0  0
   -5.1179   -2.0740    0.0000 C   0  0  0  0  0  0  0  0  0  0  0  0
   -6.6111   -1.9319    0.0000 N   0  0  0  0  0  0  0  0  0  0  0  0
   -7.4808   -3.1541    0.0000 C   0  0  0  0  0  0  0  0  0  0  0  0
   -8.9456   -2.8311    0.0000 N   0  0  0  0  0  0  0  0  0  0  0  0
   -6.8572   -4.5183    0.0000 N   0  0  0  0  0  0  0  0  0  0  0  0
   -3.2399    0.8725    0.0000 C   0  0  0  0  0  0  0  0  0  0  0  0
   -3.3593    2.3678    0.0000 O   0  0  0  0  0  0  0  0  0  0  0  0
   -4.4751    0.0215    0.0000 N   0  0  0  0  0  0  0  0  0  0  0  0
   -5.8297    0.6657    0.0000 C   0  0  0  0  0  0  0  0  0  0  0  0
   -6.8823    1.7344    0.0000 C   0  0  0  0  0  0  0  0  0  0  0  0
   -6.4831    3.1803    0.0000 C   0  0  0  0  0  0  0  0  0  0  0  0
   -7.5357    4.2489    0.0000 C   0  0  0  0  0  0  0  0  0  0  0  0
   -7.1365    5.6948    0.0000 N   0  0  0  0  0  0  0  0  0  0  0  0
   -8.9875    3.8717    0.0000 O   0  0  0  0  0  0  0  0  0  0  0  0
   -7.0650   -0.1853    0.0000 C   0  0  0  0  0  0  0  0  0  0  0  0
   -7.2443   -1.2640    0.0000 O   0  0  0  0  0  0  0  0  0  0  0  0
   -8.4196    0.4589    0.0000 N   0  0  0  0  0  0  0  0  0  0  0  0
   -9.6548   -0.3921    0.0000 C   0  0  0  0  0  0  0  0  0  0  0  0
  -10.5244   -1.6143    0.0000 C   0  0  0  0  0  0  0  0  0  0  0  0
  -12.0177   -1.4723    0.0000 C   0  0  0  0  0  0  0  0  0  0  0  0
  -12.8874   -2.6944    0.0000 C   0  0  0  0  0  0  0  0  0  0  0  0
  -14.3806   -2.5524    0.0000 N   0  0  0  0  0  0  0  0  0  0  0  0
  -15.2503   -3.7746    0.0000 C   0  0  0  0  0  0  0  0  0  0  0  0
  -16.7151   -3.4515    0.0000 N   0  0  0  0  0  0  0  0  0  0  0  0
  -14.6267   -5.1388    0.0000 N   0  0  0  0  0  0  0  0  0  0  0  0
  -11.0094    0.2521    0.0000 C   0  0  0  0  0  0  0  0  0  0  0  0
  -11.1288    1.7473    0.0000 O   0  0  0  0  0  0  0  0  0  0  0  0
  -12.2446   -0.5990    0.0000 N   0  0  0  0  0  0  0  0  0  0  0  0
  -13.5992    0.0452    0.0000 C   0  0  0  0  0  0  0  0  0  0  0  0
  -14.6518    1.1139    0.0000 C   0  0  0  0  0  0  0  0  0  0  0  0
  -14.2526    2.5598    0.0000 C   0  0  0  0  0  0  0  0  0  0  0  0
  -15.3052    3.6285    0.0000 C   0  0  0  0  0  0  0  0  0  0  0  0
  -14.9060    5.0744    0.0000 N   0  0  0  0  0  0  0  0  0  0  0  0
  -15.9586    6.1431    0.0000 C   0  0  0  0  0  0  0  0  0  0  0  0
  -15.5594    7.5890    0.0000 N   0  0  0  0  0  0  0  0  0  0  0  0
  -17.4104    5.7658    0.0000 N   0  0  0  0  0  0  0  0  0  0  0  0
  -14.8345   -0.8058    0.0000 C   0  0  0  0  0  0  0  0  0  0  0  0
  -15.0138   -1.8845    0.0000 O   0  0  0  0  0  0  0  0  0  0  0  0
  -16.1891   -0.1616    0.0000 N   0  0  0  0  0  0  0  0  0  0  0  0
  -17.4243   -1.0126    0.0000 C   0  0  0  0  0  0  0  0  0  0  0  0
  -18.2939   -2.2348    0.0000 C   0  0  0  0  0  0  0  0  0  0  0  0
  -19.7872   -2.0927    0.0000 C   0  0  0  0  0  0  0  0  0  0  0  0
  -20.6568   -3.3149    0.0000 C   0  0  0  0  0  0  0  0  0  0  0  0
  -22.1501   -3.1728    0.0000 N   0  0  0  0  0  0  0  0  0  0  0  0
  -23.0198   -4.3950    0.0000 C   0  0  0  0  0  0  0  0  0  0  0  0
  -24.4846   -4.0720    0.0000 N   0  0  0  0  0  0  0  0  0  0  0  0
  -22.3962   -5.7592    0.0000 N   0  0  0  0  0  0  0  0  0  0  0  0
  -18.7789   -0.3684    0.0000 C   0  0  0  0  0  0  0  0  0  0  0  0
  -18.8983    1.1269    0.0000 O   0  0  0  0  0  0  0  0  0  0  0  0
  -20.0141   -1.2194    0.0000 N   0  0  0  0  0  0  0  0  0  0  0  0
  -21.3687   -0.5752    0.0000 C   0  0  0  0  0  0  0  0  0  0  0  0
  -22.4213    0.4935    0.0000 C   0  0  0  0  0  0  0  0  0  0  0  0
  -22.0221    1.9394    0.0000 C   0  0  0  0  0  0  0  0  0  0  0  0
  -23.0747    3.0080    0.0000 C   0  0  0  0  0  0  0  0  0  0  0  0
  -22.6755    4.4539    0.0000 N   0  0  0  0  0  0  0  0  0  0  0  0
  -23.7281    5.5226    0.0000 C   0  0  0  0  0  0  0  0  0  0  0  0
  -23.3289    6.9685    0.0000 N   0  0  0  0  0  0  0  0  0  0  0  0
  -25.1799    5.1454    0.0000 N   0  0  0  0  0  0  0  0  0  0  0  0
  -22.6039   -1.4262    0.0000 C   0  0  0  0  0  0  0  0  0  0  0  0
  -22.7832   -2.5049    0.0000 O   0  0  0  0  0  0  0  0  0  0  0  0
  -23.9586   -0.7820    0.0000 N   0  0  0  0  0  0  0  0  0  0  0  0
  -25.1938   -1.6330    0.0000 C   0  0  0  0  0  0  0  0  0  0  0  0
  -26.0634   -2.8552    0.0000 C   0  0  0  0  0  0  0  0  0  0  0  0
  -27.5567   -2.7132    0.0000 C   0  0  0  0  0  0  0  0  0  0  0  0
  -28.4263   -3.9353    0.0000 C   0  0  0  0  0  0  0  0  0  0  0  0
  -29.9196   -3.7933    0.0000 N   0  0  0  0  0  0  0  0  0  0  0  0
  -30.7893   -5.0154    0.0000 C   0  0  0  0  0  0  0  0  0  0  0  0
  -32.2825   -4.8734    0.0000 N   0  0  0  0  0  0  0  0  0  0  0  0
  -30.1656   -6.3797    0.0000 N   0  0  0  0  0  0  0  0  0  0  0  0
  -26.5484   -0.9888    0.0000 C   0  0  0  0  0  0  0  0  0  0  0  0
  -27.8781   -1.6829    0.0000 O   0  0  0  0  0  0  0  0  0  0  0  0
  -26.6678    0.5064    0.0000 O   0  0  0  0  0  0  0  0  0  0  0  0
   14.6175  -13.2084    0.0000 H   0  0  0  0  0  0  0  0  0  0  0  0
   10.2953  -11.9830    0.0000 H   0  0  0  0  0  0  0  0  0  0  0  0
    8.0602  -13.9841    0.0000 H   0  0  0  0  0  0  0  0  0  0  0  0
   13.3176  -15.4581    0.0000 H   0  0  0  0  0  0  0  0  0  0  0  0
   13.3144  -22.6401    0.0000 H   0  0  0  0  0  0  0  0  0  0  0  0
    8.1482  -22.0824    0.0000 H   0  0  0  0  0  0  0  0  0  0  0  0
    8.4702  -19.0997    0.0000 H   0  0  0  0  0  0  0  0  0  0  0  0
    9.1983  -24.4588    0.0000 H   0  0  0  0  0  0  0  0  0  0  0  0
   11.5363  -14.9046    0.0000 H   0  0  0  0  0  0  0  0  0  0  0  0
   14.4609  -13.7228    0.0000 H   0  0  0  0  0  0  0  0  0  0  0  0
   16.3804  -18.4450    0.0000 H   0  0  0  0  0  0  0  0  0  0  0  0
   17.9134  -16.3474    0.0000 H   0  0  0  0  0  0  0  0  0  0  0  0
   15.3809  -10.9170    0.0000 H   0  0  0  0  0  0  0  0  0  0  0  0
   12.2556   -9.5393    0.0000 H   0  0  0  0  0  0  0  0  0  0  0  0
   12.8567   -7.7070    0.0000 H   0  0  0  0  0  0  0  0  0  0  0  0
   15.5568   -9.2551    0.0000 H   0  0  0  0  0  0  0  0  0  0  0  0
   16.1578   -7.4228    0.0000 H   0  0  0  0  0  0  0  0  0  0  0  0
   16.9329   -6.1499    0.0000 H   0  0  0  0  0  0  0  0  0  0  0  0
   15.2473   -5.9245    0.0000 H   0  0  0  0  0  0  0  0  0  0  0  0
   13.9301   -6.4633    0.0000 H   0  0  0  0  0  0  0  0  0  0  0  0
   13.5651   -6.9224    0.0000 H   0  0  0  0  0  0  0  0  0  0  0  0
   12.4959   -7.1368    0.0000 H   0  0  0  0  0  0  0  0  0  0  0  0
   12.3349   -7.1841    0.0000 H   0  0  0  0  0  0  0  0  0  0  0  0
   10.9567   -7.5388    0.0000 H   0  0  0  0  0  0  0  0  0  0  0  0
   10.4536   -7.5870    0.0000 H   0  0  0  0  0  0  0  0  0  0  0  0
    9.1945   -7.5874    0.0000 H   0  0  0  0  0  0  0  0  0  0  0  0
    8.6914   -7.5396    0.0000 H   0  0  0  0  0  0  0  0  0  0  0  0
    7.4549   -7.3017    0.0000 H   0  0  0  0  0  0  0  0  0  0  0  0
    6.9699   -7.1595    0.0000 H   0  0  0  0  0  0  0  0  0  0  0  0
    5.6833   -6.5514    0.0000 H   0  0  0  0  0  0  0  0  0  0  0  0
    4.7469   -6.2369    0.0000 H   0  0  0  0  0  0  0  0  0  0  0  0
   17.2931   -5.8063    0.0000 H   0  0  0  0  0  0  0  0  0  0  0  0
   18.2191   -4.4602    0.0000 H   0  0  0  0  0  0  0  0  0  0  0  0
   17.1963   -2.9980    0.0000 H   0  0  0  0  0  0  0  0  0  0  0  0
   18.2776   -2.3951    0.0000 H   0  0  0  0  0  0  0  0  0  0  0  0
   18.4036   -1.3821    0.0000 H   0  0  0  0  0  0  0  0  0  0  0  0
   20.0928    1.2031    0.0000 H   0  0  0  0  0  0  0  0  0  0  0  0
   18.5461    1.7297    0.0000 H   0  0  0  0  0  0  0  0  0  0  0  0
   20.7412   -2.0462    0.0000 H   0  0  0  0  0  0  0  0  0  0  0  0
   19.1130   -1.9096    0.0000 H   0  0  0  0  0  0  0  0  0  0  0  0
   22.6360    0.6719    0.0000 H   0  0  0  0  0  0  0  0  0  0  0  0
   20.9148    1.1428    0.0000 H   0  0  0  0  0  0  0  0  0  0  0  0
   22.2688   -2.7238    0.0000 H   0  0  0  0  0  0  0  0  0  0  0  0
   26.5436   -1.3181    0.0000 H   0  0  0  0  0  0  0  0  0  0  0  0
   25.7320    1.1499    0.0000 H   0  0  0  0  0  0  0  0  0  0  0  0
   23.1889    1.6811    0.0000 H   0  0  0  0  0  0  0  0  0  0  0  0
   19.1298    2.8214    0.0000 H   0  0  0  0  0  0  0  0  0  0  0  0
   18.6881    3.7417    0.0000 H   0  0  0  0  0  0  0  0  0  0  0  0
   18.7115    6.8298    0.0000 H   0  0  0  0  0  0  0  0  0  0  0  0
   17.1257    6.4366    0.0000 H   0  0  0  0  0  0  0  0  0  0  0  0
   21.0137    4.4468    0.0000 H   0  0  0  0  0  0  0  0  0  0  0  0
   19.5701    3.6815    0.0000 H   0  0  0  0  0  0  0  0  0  0  0  0
   21.1382    7.7579    0.0000 H   0  0  0  0  0  0  0  0  0  0  0  0
   19.4356    7.2234    0.0000 H   0  0  0  0  0  0  0  0  0  0  0  0
   22.6651    4.7027    0.0000 H   0  0  0  0  0  0  0  0  0  0  0  0
   25.5014    8.1964    0.0000 H   0  0  0  0  0  0  0  0  0  0  0  0
   23.4843    9.8339    0.0000 H   0  0  0  0  0  0  0  0  0  0  0  0
   21.0576    8.9058    0.0000 H   0  0  0  0  0  0  0  0  0  0  0  0
   17.0265    7.6706    0.0000 H   0  0  0  0  0  0  0  0  0  0  0  0
   16.1573    8.2060    0.0000 H   0  0  0  0  0  0  0  0  0  0  0  0
   14.6878   10.8488    0.0000 H   0  0  0  0  0  0  0  0  0  0  0  0
   13.3860    9.6283    0.0000 H   0  0  0  0  0  0  0  0  0  0  0  0
   17.7325   10.0565    0.0000 H   0  0  0  0  0  0  0  0  0  0  0  0
   16.9319    8.6322    0.0000 H   0  0  0  0  0  0  0  0  0  0  0  0
   17.9410   13.5443    0.0000 H   0  0  0  0  0  0  0  0  0  0  0  0
   18.9835   11.1646    0.0000 H   0  0  0  0  0  0  0  0  0  0  0  0
   12.6354   10.6128    0.0000 H   0  0  0  0  0  0  0  0  0  0  0  0
   11.6147   10.5934    0.0000 H   0  0  0  0  0  0  0  0  0  0  0  0
    8.8154   11.8975    0.0000 H   0  0  0  0  0  0  0  0  0  0  0  0
    8.5144   10.2916    0.0000 H   0  0  0  0  0  0  0  0  0  0  0  0
   11.9394   13.0017    0.0000 H   0  0  0  0  0  0  0  0  0  0  0  0
   12.0359   11.3707    0.0000 H   0  0  0  0  0  0  0  0  0  0  0  0
    8.9793   14.4904    0.0000 H   0  0  0  0  0  0  0  0  0  0  0  0
    8.7582   12.7197    0.0000 H   0  0  0  0  0  0  0  0  0  0  0  0
   12.3927   14.6102    0.0000 H   0  0  0  0  0  0  0  0  0  0  0  0
   10.3930   18.6414    0.0000 H   0  0  0  0  0  0  0  0  0  0  0  0
    8.0655   17.4869    0.0000 H   0  0  0  0  0  0  0  0  0  0  0  0
    7.9017   14.8940    0.0000 H   0  0  0  0  0  0  0  0  0  0  0  0
    7.3507   10.7140    0.0000 H   0  0  0  0  0  0  0  0  0  0  0  0
    6.5026   10.1458    0.0000 H   0  0  0  0  0  0  0  0  0  0  0  0
    3.4426    9.7295    0.0000 H   0  0  0  0  0  0  0  0  0  0  0  0
    4.0575    8.2158    0.0000 H   0  0  0  0  0  0  0  0  0  0  0  0
    5.4737   12.3474    0.0000 H   0  0  0  0  0  0  0  0  0  0  0  0
    6.4366   11.0274    0.0000 H   0  0  0  0  0  0  0  0  0  0  0  0
    2.1786   11.9994    0.0000 H   0  0  0  0  0  0  0  0  0  0  0  0
    2.9499   10.3902    0.0000 H   0  0  0  0  0  0  0  0  0  0  0  0
    4.9854   13.9456    0.0000 H   0  0  0  0  0  0  0  0  0  0  0  0
    1.1236   16.2558    0.0000 H   0  0  0  0  0  0  0  0  0  0  0  0
   -0.2101   14.0262    0.0000 H   0  0  0  0  0  0  0  0  0  0  0  0
    1.0538   11.7563    0.0000 H   0  0  0  0  0  0  0  0  0  0  0  0
    2.8502    7.9419    0.0000 H   0  0  0  0  0  0  0  0  0  0  0  0
    2.4439    7.0055    0.0000 H   0  0  0  0  0  0  0  0  0  0  0  0
    0.0948    5.0009    0.0000 H   0  0  0  0  0  0  0  0  0  0  0  0
    1.4305    4.0599    0.0000 H   0  0  0  0  0  0  0  0  0  0  0  0
    0.3881    8.3013    0.0000 H   0  0  0  0  0  0  0  0  0  0  0  0
    1.9118    7.7115    0.0000 H   0  0  0  0  0  0  0  0  0  0  0  0
   -2.1957    6.2271    0.0000 H   0  0  0  0  0  0  0  0  0  0  0  0
   -0.6769    5.2904    0.0000 H   0  0  0  0  0  0  0  0  0  0  0  0
   -0.8867    9.3818    0.0000 H   0  0  0  0  0  0  0  0  0  0  0  0
   -5.3844    9.2374    0.0000 H   0  0  0  0  0  0  0  0  0  0  0  0
   -5.2840    6.4583    0.0000 H   0  0  0  0  0  0  0  0  0  0  0  0
   -3.0106    5.4145    0.0000 H   0  0  0  0  0  0  0  0  0  0  0  0
    0.5628    3.1768    0.0000 H   0  0  0  0  0  0  0  0  0  0  0  0
    1.1019   -1.2679    0.0000 H   0  0  0  0  0  0  0  0  0  0  0  0
    0.6577   -0.0897    0.0000 H   0  0  0  0  0  0  0  0  0  0  0  0
    1.6683   -2.7544    0.0000 H   0  0  0  0  0  0  0  0  0  0  0  0
    1.1553   -1.7922    0.0000 H   0  0  0  0  0  0  0  0  0  0  0  0
    2.8163   -4.2983    0.0000 H   0  0  0  0  0  0  0  0  0  0  0  0
    1.9212   -3.1920    0.0000 H   0  0  0  0  0  0  0  0  0  0  0  0
    3.3433   -5.1339    0.0000 H   0  0  0  0  0  0  0  0  0  0  0  0
   -0.8063    1.5783    0.0000 H   0  0  0  0  0  0  0  0  0  0  0  0
   -0.3540    3.1482    0.0000 H   0  0  0  0  0  0  0  0  0  0  0  0
    1.2642    3.3737    0.0000 H   0  0  0  0  0  0  0  0  0  0  0  0
   -0.9509    2.5489    0.0000 H   0  0  0  0  0  0  0  0  0  0  0  0
   -0.8327   -0.8404    0.0000 H   0  0  0  0  0  0  0  0  0  0  0  0
   -2.9749   -2.4777    0.0000 H   0  0  0  0  0  0  0  0  0  0  0  0
   -1.4003   -1.6381    0.0000 H   0  0  0  0  0  0  0  0  0  0  0  0
   -5.6028   -0.2076    0.0000 H   0  0  0  0  0  0  0  0  0  0  0  0
   -4.5747    0.6122    0.0000 H   0  0  0  0  0  0  0  0  0  0  0  0
   -5.5171   -3.5199    0.0000 H   0  0  0  0  0  0  0  0  0  0  0  0
   -3.8519   -2.8785    0.0000 H   0  0  0  0  0  0  0  0  0  0  0  0
   -7.5463   -0.7591    0.0000 H   0  0  0  0  0  0  0  0  0  0  0  0
   -9.8437   -4.2342    0.0000 H   0  0  0  0  0  0  0  0  0  0  0  0
   -7.7268   -5.7405    0.0000 H   0  0  0  0  0  0  0  0  0  0  0  0
   -5.3639   -4.6604    0.0000 H   0  0  0  0  0  0  0  0  0  0  0  0
   -4.7211   -1.4582    0.0000 H   0  0  0  0  0  0  0  0  0  0  0  0
   -4.8176    1.7727    0.0000 H   0  0  0  0  0  0  0  0  0  0  0  0
   -8.1483    2.5389    0.0000 H   0  0  0  0  0  0  0  0  0  0  0  0
   -8.0219    0.7589    0.0000 H   0  0  0  0  0  0  0  0  0  0  0  0
   -5.6135    4.4024    0.0000 H   0  0  0  0  0  0  0  0  0  0  0  0
   -5.0601    2.7060    0.0000 H   0  0  0  0  0  0  0  0  0  0  0  0
   -8.1891    6.7635    0.0000 H   0  0  0  0  0  0  0  0  0  0  0  0
   -5.6496    5.8923    0.0000 H   0  0  0  0  0  0  0  0  0  0  0  0
   -8.7204    1.9284    0.0000 H   0  0  0  0  0  0  0  0  0  0  0  0
   -8.6022   -1.4608    0.0000 H   0  0  0  0  0  0  0  0  0  0  0  0
  -10.7444   -3.0981    0.0000 H   0  0  0  0  0  0  0  0  0  0  0  0
   -9.1014   -2.0886    0.0000 H   0  0  0  0  0  0  0  0  0  0  0  0
  -13.3723   -0.8281    0.0000 H   0  0  0  0  0  0  0  0  0  0  0  0
  -12.3442   -0.0082    0.0000 H   0  0  0  0  0  0  0  0  0  0  0  0
  -13.2865   -4.1403    0.0000 H   0  0  0  0  0  0  0  0  0  0  0  0
  -11.6214   -3.4990    0.0000 H   0  0  0  0  0  0  0  0  0  0  0  0
  -15.3158   -1.3796    0.0000 H   0  0  0  0  0  0  0  0  0  0  0  0
  -17.6132   -4.8547    0.0000 H   0  0  0  0  0  0  0  0  0  0  0  0
  -15.4963   -6.3610    0.0000 H   0  0  0  0  0  0  0  0  0  0  0  0
  -13.1334   -5.2808    0.0000 H   0  0  0  0  0  0  0  0  0  0  0  0
  -12.4906   -2.0787    0.0000 H   0  0  0  0  0  0  0  0  0  0  0  0
  -12.5871    1.1523    0.0000 H   0  0  0  0  0  0  0  0  0  0  0  0
  -16.0064    1.7581    0.0000 H   0  0  0  0  0  0  0  0  0  0  0  0
  -15.7914    0.1385    0.0000 H   0  0  0  0  0  0  0  0  0  0  0  0
  -13.3830    3.7820    0.0000 H   0  0  0  0  0  0  0  0  0  0  0  0
  -12.8296    2.0855    0.0000 H   0  0  0  0  0  0  0  0  0  0  0  0
  -16.6598    4.2727    0.0000 H   0  0  0  0  0  0  0  0  0  0  0  0
  -16.3174    2.5214    0.0000 H   0  0  0  0  0  0  0  0  0  0  0  0
  -13.4542    5.4516    0.0000 H   0  0  0  0  0  0  0  0  0  0  0  0
  -16.6120    8.6576    0.0000 H   0  0  0  0  0  0  0  0  0  0  0  0
  -18.4630    6.8345    0.0000 H   0  0  0  0  0  0  0  0  0  0  0  0
  -17.8096    4.3199    0.0000 H   0  0  0  0  0  0  0  0  0  0  0  0
  -16.4898    1.3080    0.0000 H   0  0  0  0  0  0  0  0  0  0  0  0
  -16.3717   -2.0813    0.0000 H   0  0  0  0  0  0  0  0  0  0  0  0
  -18.5139   -3.7185    0.0000 H   0  0  0  0  0  0  0  0  0  0  0  0
  -16.8709   -2.7091    0.0000 H   0  0  0  0  0  0  0  0  0  0  0  0
  -21.1418   -1.4485    0.0000 H   0  0  0  0  0  0  0  0  0  0  0  0
  -20.1137   -0.6287    0.0000 H   0  0  0  0  0  0  0  0  0  0  0  0
  -21.0560   -4.7608    0.0000 H   0  0  0  0  0  0  0  0  0  0  0  0
  -19.3909   -4.1194    0.0000 H   0  0  0  0  0  0  0  0  0  0  0  0
  -23.0853   -2.0000    0.0000 H   0  0  0  0  0  0  0  0  0  0  0  0
  -25.3827   -5.4751    0.0000 H   0  0  0  0  0  0  0  0  0  0  0  0
  -23.2658   -6.9814    0.0000 H   0  0  0  0  0  0  0  0  0  0  0  0
  -20.9029   -5.9013    0.0000 H   0  0  0  0  0  0  0  0  0  0  0  0
  -20.2601   -2.6991    0.0000 H   0  0  0  0  0  0  0  0  0  0  0  0
  -20.3566    0.5319    0.0000 H   0  0  0  0  0  0  0  0  0  0  0  0
  -23.7759    1.1377    0.0000 H   0  0  0  0  0  0  0  0  0  0  0  0
  -23.5609   -0.4819    0.0000 H   0  0  0  0  0  0  0  0  0  0  0  0
  -21.1525    3.1615    0.0000 H   0  0  0  0  0  0  0  0  0  0  0  0
  -20.5991    1.4651    0.0000 H   0  0  0  0  0  0  0  0  0  0  0  0
  -24.4293    3.6523    0.0000 H   0  0  0  0  0  0  0  0  0  0  0  0
  -24.0869    1.9010    0.0000 H   0  0  0  0  0  0  0  0  0  0  0  0
  -21.2237    4.8312    0.0000 H   0  0  0  0  0  0  0  0  0  0  0  0
  -24.3815    8.0372    0.0000 H   0  0  0  0  0  0  0  0  0  0  0  0
  -26.2325    6.2140    0.0000 H   0  0  0  0  0  0  0  0  0  0  0  0
  -25.5791    3.6995    0.0000 H   0  0  0  0  0  0  0  0  0  0  0  0
  -24.2593    0.6875    0.0000 H   0  0  0  0  0  0  0  0  0  0  0  0
  -24.1412   -2.7017    0.0000 H   0  0  0  0  0  0  0  0  0  0  0  0
  -26.2834   -4.3390    0.0000 H   0  0  0  0  0  0  0  0  0  0  0  0
  -24.6404   -3.3295    0.0000 H   0  0  0  0  0  0  0  0  0  0  0  0
  -28.9113   -2.0689    0.0000 H   0  0  0  0  0  0  0  0  0  0  0  0
  -27.7023   -1.2202    0.0000 H   0  0  0  0  0  0  0  0  0  0  0  0
  -28.8255   -5.3812    0.0000 H   0  0  0  0  0  0  0  0  0  0  0  0
  -27.1604   -4.7399    0.0000 H   0  0  0  0  0  0  0  0  0  0  0  0
  -30.5432   -2.4290    0.0000 H   0  0  0  0  0  0  0  0  0  0  0  0
  -33.1522   -6.0956    0.0000 H   0  0  0  0  0  0  0  0  0  0  0  0
  -31.0353   -7.6018    0.0000 H   0  0  0  0  0  0  0  0  0  0  0  0
  -28.6724   -6.5217    0.0000 H   0  0  0  0  0  0  0  0  0  0  0  0
  -28.0224    1.1506    0.0000 H   0  0  0  0  0  0  0  0  0  0  0  0
  1  2  1  0
  2  3  1  0
  3  4  2  0
  4  5  1  0
  5  6  2  0
  6  7  1  0
  7  8  2  0
  7  9  1  0
  9 10  1  0
 10 11  1  0
 11 12  2  0
  9 13  1  0
 13 14  1  0
 14 15  2  0
 15 16  1  0
 16 17  2  0
 17 18  1  0
 16 19  1  0
 14 20  1  0
 20 21  1  0
 21 22  2  0
 22 23  1  0
 23 24  2  0
 24 25  1  0
 25 26  2  0
 25 27  1  0
  1 28  2  0
  1 29  1  0
 29 30  1  0
 30 31  1  0
 31 32  1  0
 32 33  2  0
 32 34  1  0
 35 34  1  6
 35 36  1  0
 36 37  1  0
 37 38  1  0
 38 39  1  0
 39 40  1  0
 40 41  1  0
 41 42  1  0
 35 43  1  0
 35 44  1  0
 44 45  2  0
 44 46  1  0
 46 47  1  0
 47 48  1  0
 48 49  1  0
 49 50  1  0
 50 51  1  0
 51 52  1  0
 52 53  2  3
 52 54  1  0
 47 55  1  0
 55 56  2  0
 55 57  1  0
 57 58  1  0
 58 59  1  0
 59 60  1  0
 60 61  1  0
 61 62  1  0
 62 63  1  0
 63 64  2  3
 63 65  1  0
 58 66  1  0
 66 67  2  0
 66 68  1  0
 68 69  1  0
 69 70  1  0
 70 71  1  0
 71 72  1  0
 72 73  1  0
 72 74  2  0
 69 75  1  0
 75 76  2  0
 75 77  1  0
 77 78  1  0
 78 79  1  0
 79 80  1  0
 80 81  1  0
 81 82  1  0
 82 83  1  0
 83 84  2  3
 83 85  1  0
 78 86  1  0
 86 87  2  0
 86 88  1  0
 88 89  1  0
 89 90  1  0
 90 91  1  0
 91 92  1  0
 92 93  1  0
 93 94  1  0
 94 95  2  3
 94 96  1  0
 89 97  1  0
 97 98  2  0
 97 99  1  0
 99100  1  0
100101  1  0
101102  1  0
102103  1  0
103104  1  0
104105  1  0
105106  2  3
105107  1  0
100108  1  0
108109  2  0
108110  1  0
110111  1  0
111112  1  0
112113  1  0
113114  1  0
114115  1  0
111116  1  0
111117  1  1
117118  2  0
117119  1  0
119120  1  0
120121  1  0
121122  1  0
122123  1  0
123124  1  0
124125  1  0
125126  2  3
125127  1  0
120128  1  0
128129  2  0
128130  1  0
130131  1  0
131132  1  0
132133  1  0
133134  1  0
134135  1  0
134136  2  0
131137  1  0
137138  2  0
137139  1  0
139140  1  0
140141  1  0
141142  1  0
142143  1  0
143144  1  0
144145  1  0
145146  2  3
145147  1  0
140148  1  0
148149  2  0
148150  1  0
150151  1  0
151152  1  0
152153  1  0
153154  1  0
154155  1  0
155156  1  0
156157  2  3
156158  1  0
151159  1  0
159160  2  0
159161  1  0
161162  1  0
162163  1  0
163164  1  0
164165  1  0
165166  1  0
166167  1  0
167168  2  3
167169  1  0
162170  1  0
170171  2  0
170172  1  0
172173  1  0
173174  1  0
174175  1  0
175176  1  0
176177  1  0
177178  1  0
178179  2  3
178180  1  0
173181  1  0
181182  2  0
181183  1  0
183184  1  0
184185  1  0
185186  1  0
186187  1  0
187188  1  0
188189  1  0
189190  2  3
189191  1  0
184192  1  0
192193  2  0
192194  1  0
  8  3  1  0
 11  6  1  0
 42115  2  0
 18 13  2  0
 22  9  1  0
 26 21  1  0
  2195  1  0
  4196  1  0
  5197  1  0
  8198  1  0
 15199  1  0
 17200  1  0
 18201  1  0
 19202  1  0
 23203  1  0
 24204  1  0
 26205  1  0
 27206  1  0
 29207  1  0
 30208  1  0
 30209  1  0
 31210  1  0
 31211  1  0
 34212  1  0
 36213  1  0
 36214  1  0
 37215  1  0
 37216  1  0
 38217  1  0
 38218  1  0
 39219  1  0
 39220  1  0
 40221  1  0
 40222  1  0
 41223  1  0
 41224  1  0
 42225  1  0
 43226  1  0
 43227  1  0
 43228  1  0
 46229  1  0
 47230  1  6
 48231  1  0
 48232  1  0
 49233  1  0
 49234  1  0
 50235  1  0
 50236  1  0
 51237  1  0
 53238  1  0
 54239  1  0
 54240  1  0
 57241  1  0
 58242  1  6
 59243  1  0
 59244  1  0
 60245  1  0
 60246  1  0
 61247  1  0
 61248  1  0
 62249  1  0
 64250  1  0
 65251  1  0
 65252  1  0
 68253  1  0
 69254  1  6
 70255  1  0
 70256  1  0
 71257  1  0
 71258  1  0
 73259  1  0
 73260  1  0
 77261  1  0
 78262  1  6
 79263  1  0
 79264  1  0
 80265  1  0
 80266  1  0
 81267  1  0
 81268  1  0
 82269  1  0
 84270  1  0
 85271  1  0
 85272  1  0
 88273  1  0
 89274  1  6
 90275  1  0
 90276  1  0
 91277  1  0
 91278  1  0
 92279  1  0
 92280  1  0
 93281  1  0
 95282  1  0
 96283  1  0
 96284  1  0
 99285  1  0
100286  1  6
101287  1  0
101288  1  0
102289  1  0
102290  1  0
103291  1  0
103292  1  0
104293  1  0
106294  1  0
107295  1  0
107296  1  0
110297  1  0
112298  1  0
112299  1  0
113300  1  0
113301  1  0
114302  1  0
114303  1  0
115304  1  0
116305  1  0
116306  1  0
116307  1  0
119308  1  0
120309  1  1
121310  1  0
121311  1  0
122312  1  0
122313  1  0
123314  1  0
123315  1  0
124316  1  0
126317  1  0
127318  1  0
127319  1  0
130320  1  0
131321  1  6
132322  1  0
132323  1  0
133324  1  0
133325  1  0
135326  1  0
135327  1  0
139328  1  0
140329  1  1
141330  1  0
141331  1  0
142332  1  0
142333  1  0
143334  1  0
143335  1  0
144336  1  0
146337  1  0
147338  1  0
147339  1  0
150340  1  0
151341  1  6
152342  1  0
152343  1  0
153344  1  0
153345  1  0
154346  1  0
154347  1  0
155348  1  0
157349  1  0
158350  1  0
158351  1  0
161352  1  0
162353  1  1
163354  1  0
163355  1  0
164356  1  0
164357  1  0
165358  1  0
165359  1  0
166360  1  0
168361  1  0
169362  1  0
169363  1  0
172364  1  0
173365  1  6
174366  1  0
174367  1  0
175368  1  0
175369  1  0
176370  1  0
176371  1  0
177372  1  0
179373  1  0
180374  1  0
180375  1  0
183376  1  0
184377  1  1
185378  1  0
185379  1  0
186380  1  0
186381  1  0
187382  1  0
187383  1  0
188384  1  0
190385  1  0
191386  1  0
191387  1  0
194388  1  0
M  END
