
     RDKit          2D

340345  0  0  0  0  0  0  0  0999 V2000
   23.3382   -1.3697    0.0000 C   0  0  0  0  0  0  0  0  0  0  0  0
   24.3506   -0.2629    0.0000 N   0  0  0  0  0  0  0  0  0  0  0  0
   25.8153   -0.5863    0.0000 C   0  0  0  0  0  0  0  0  0  0  0  0
   26.2677   -2.0165    0.0000 C   0  0  0  0  0  0  0  0  0  0  0  0
   27.7324   -2.3398    0.0000 C   0  0  0  0  0  0  0  0  0  0  0  0
   28.7448   -1.2330    0.0000 C   0  0  0  0  0  0  0  0  0  0  0  0
   28.2925    0.1971    0.0000 C   0  0  0  0  0  0  0  0  0  0  0  0
   26.8278    0.5205    0.0000 C   0  0  0  0  0  0  0  0  0  0  0  0
   29.5129    1.0693    0.0000 C   0  0  0  0  0  0  0  0  0  0  0  0
   30.7195    0.1781    0.0000 O   0  0  0  0  0  0  0  0  0  0  0  0
   30.2448   -1.2448    0.0000 C   0  0  0  0  0  0  0  0  0  0  0  0
   31.1169   -2.4652    0.0000 O   0  0  0  0  0  0  0  0  0  0  0  0
   30.8178    1.8091    0.0000 C   0  0  0  0  0  0  0  0  0  0  0  0
   30.8296    3.3090    0.0000 C   0  0  0  0  0  0  0  0  0  0  0  0
   32.1344    4.0488    0.0000 C   0  0  0  0  0  0  0  0  0  0  0  0
   33.4276    3.2886    0.0000 C   0  0  0  0  0  0  0  0  0  0  0  0
   33.4158    1.7887    0.0000 C   0  0  0  0  0  0  0  0  0  0  0  0
   32.1109    1.0489    0.0000 C   0  0  0  0  0  0  0  0  0  0  0  0
   34.7324    4.0284    0.0000 O   0  0  0  0  0  0  0  0  0  0  0  0
   29.5364    4.0692    0.0000 O   0  0  0  0  0  0  0  0  0  0  0  0
   28.2316    3.3294    0.0000 C   0  0  0  0  0  0  0  0  0  0  0  0
   28.2198    1.8294    0.0000 C   0  0  0  0  0  0  0  0  0  0  0  0
   26.9204    1.7896    0.0000 C   0  0  0  0  0  0  0  0  0  0  0  0
   26.2307    2.1951    0.0000 C   0  0  0  0  0  0  0  0  0  0  0  0
   26.2370    2.9950    0.0000 C   0  0  0  0  0  0  0  0  0  0  0  0
   26.9330    3.3896    0.0000 C   0  0  0  0  0  0  0  0  0  0  0  0
   24.3405    4.1100    0.0000 O   0  0  0  0  0  0  0  0  0  0  0  0
   23.7905   -2.7999    0.0000 S   0  0  0  0  0  0  0  0  0  0  0  0
   21.8735   -1.0463    0.0000 N   0  0  0  0  0  0  0  0  0  0  0  0
   20.8611   -2.1531    0.0000 C   0  0  0  0  0  0  0  0  0  0  0  0
   19.3963   -1.8298    0.0000 C   0  0  0  0  0  0  0  0  0  0  0  0
   18.3839   -2.9366    0.0000 C   0  0  0  0  0  0  0  0  0  0  0  0
   18.7152   -3.6617    0.0000 O   0  0  0  0  0  0  0  0  0  0  0  0
   16.9192   -2.6132    0.0000 N   0  0  0  0  0  0  0  0  0  0  0  0
   15.9068   -3.7200    0.0000 C   0  0  0  0  0  0  0  0  0  0  0  0
   17.1726   -4.5248    0.0000 C   0  0  0  0  0  0  0  0  0  0  0  0
   18.0868   -5.7141    0.0000 O   0  0  0  0  0  0  0  0  0  0  0  0
   18.5771   -3.9983    0.0000 C   0  0  0  0  0  0  0  0  0  0  0  0
   14.5769   -4.4138    0.0000 C   0  0  0  0  0  0  0  0  0  0  0  0
   14.8773   -5.8834    0.0000 O   0  0  0  0  0  0  0  0  0  0  0  0
   13.3111   -3.6090    0.0000 N   0  0  0  0  0  0  0  0  0  0  0  0
   11.9812   -4.3028    0.0000 C   0  0  0  0  0  0  0  0  0  0  0  0
   12.8954   -5.4920    0.0000 C   0  0  0  0  0  0  0  0  0  0  0  0
   14.3824   -5.2949    0.0000 C   0  0  0  0  0  0  0  0  0  0  0  0
   15.2965   -6.4841    0.0000 C   0  0  0  0  0  0  0  0  0  0  0  0
   16.7835   -6.2870    0.0000 N   0  0  0  0  0  0  0  0  0  0  0  0
   17.6977   -7.4762    0.0000 C   0  0  0  0  0  0  0  0  0  0  0  0
   19.1847   -7.2792    0.0000 N   0  0  0  0  0  0  0  0  0  0  0  0
   17.1249   -8.8626    0.0000 N   0  0  0  0  0  0  0  0  0  0  0  0
   10.4942   -4.4998    0.0000 C   0  0  0  0  0  0  0  0  0  0  0  0
   10.2738   -5.9836    0.0000 O   0  0  0  0  0  0  0  0  0  0  0  0
    9.5800   -3.3106    0.0000 N   0  0  0  0  0  0  0  0  0  0  0  0
    8.0930   -3.5077    0.0000 C   0  0  0  0  0  0  0  0  0  0  0  0
    8.5453   -4.9379    0.0000 C   0  0  0  0  0  0  0  0  0  0  0  0
   10.0100   -5.2613    0.0000 C   0  0  0  0  0  0  0  0  0  0  0  0
   10.4623   -6.6914    0.0000 C   0  0  0  0  0  0  0  0  0  0  0  0
   11.8767   -7.1910    0.0000 N   0  0  0  0  0  0  0  0  0  0  0  0
    9.4499   -7.7982    0.0000 O   0  0  0  0  0  0  0  0  0  0  0  0
    6.6283   -3.1843    0.0000 C   0  0  0  0  0  0  0  0  0  0  0  0
    5.7583   -4.4063    0.0000 O   0  0  0  0  0  0  0  0  0  0  0  0
    6.1760   -1.7542    0.0000 N   0  0  0  0  0  0  0  0  0  0  0  0
    4.7112   -1.4308    0.0000 C   0  0  0  0  0  0  0  0  0  0  0  0
    4.6471   -2.9294    0.0000 C   0  0  0  0  0  0  0  0  0  0  0  0
    3.4454   -0.6259    0.0000 C   0  0  0  0  0  0  0  0  0  0  0  0
    2.3229   -1.6209    0.0000 O   0  0  0  0  0  0  0  0  0  0  0  0
    3.5095    0.8727    0.0000 N   0  0  0  0  0  0  0  0  0  0  0  0
    2.2437    1.6775    0.0000 C   0  0  0  0  0  0  0  0  0  0  0  0
    2.0847    0.1860    0.0000 C   0  0  0  0  0  0  0  0  0  0  0  0
    1.6463   -1.2485    0.0000 C   0  0  0  0  0  0  0  0  0  0  0  0
    0.9443   -2.5741    0.0000 C   0  0  0  0  0  0  0  0  0  0  0  0
    0.0041   -3.7429    0.0000 C   0  0  0  0  0  0  0  0  0  0  0  0
   -1.1403   -4.7126    0.0000 C   0  0  0  0  0  0  0  0  0  0  0  0
   -2.4475   -5.4483    0.0000 C   0  0  0  0  0  0  0  0  0  0  0  0
   -3.8703   -5.9232    0.0000 C   0  0  0  0  0  0  0  0  0  0  0  0
    3.5270    2.4543    0.0000 C   0  0  0  0  0  0  0  0  0  0  0  0
    2.1176    3.1722    0.0000 C   0  0  0  0  0  0  0  0  0  0  0  0
    3.5499    3.6177    0.0000 O   0  0  0  0  0  0  0  0  0  0  0  0
    1.7109    4.6160    0.0000 N   0  0  0  0  0  0  0  0  0  0  0  0
    1.0383    5.9568    0.0000 C   0  0  0  0  0  0  0  0  0  0  0  0
    1.6979    7.3040    0.0000 C   0  0  0  0  0  0  0  0  0  0  0  0
    3.1944    7.4064    0.0000 C   0  0  0  0  0  0  0  0  0  0  0  0
    3.8540    8.7536    0.0000 C   0  0  0  0  0  0  0  0  0  0  0  0
    5.3505    8.8559    0.0000 N   0  0  0  0  0  0  0  0  0  0  0  0
    6.0101   10.2031    0.0000 C   0  0  0  0  0  0  0  0  0  0  0  0
    7.5066   10.3055    0.0000 N   0  0  0  0  0  0  0  0  0  0  0  0
    5.1731   11.4480    0.0000 N   0  0  0  0  0  0  0  0  0  0  0  0
    0.1241    7.1460    0.0000 C   0  0  0  0  0  0  0  0  0  0  0  0
    1.0882    8.2952    0.0000 O   0  0  0  0  0  0  0  0  0  0  0  0
   -0.9986    8.1407    0.0000 N   0  0  0  0  0  0  0  0  0  0  0  0
   -2.2893    8.9050    0.0000 C   0  0  0  0  0  0  0  0  0  0  0  0
   -2.4628   10.3949    0.0000 C   0  0  0  0  0  0  0  0  0  0  0  0
   -1.2592   11.2901    0.0000 C   0  0  0  0  0  0  0  0  0  0  0  0
   -1.4327   12.7801    0.0000 N   0  0  0  0  0  0  0  0  0  0  0  0
    0.1179   10.6954    0.0000 O   0  0  0  0  0  0  0  0  0  0  0  0
   -3.7013    9.4112    0.0000 C   0  0  0  0  0  0  0  0  0  0  0  0
   -3.5116   10.8991    0.0000 O   0  0  0  0  0  0  0  0  0  0  0  0
   -5.1836    9.6410    0.0000 N   0  0  0  0  0  0  0  0  0  0  0  0
   -6.6826    9.5862    0.0000 C   0  0  0  0  0  0  0  0  0  0  0  0
   -7.6340   10.7458    0.0000 C   0  0  0  0  0  0  0  0  0  0  0  0
   -7.1055   12.1496    0.0000 C   0  0  0  0  0  0  0  0  0  0  0  0
   -8.0570   13.3092    0.0000 C   0  0  0  0  0  0  0  0  0  0  0  0
   -7.5284   14.7130    0.0000 N   0  0  0  0  0  0  0  0  0  0  0  0
   -8.4799   15.8726    0.0000 C   0  0  0  0  0  0  0  0  0  0  0  0
   -7.9514   17.2764    0.0000 N   0  0  0  0  0  0  0  0  0  0  0  0
   -9.9599   15.6285    0.0000 N   0  0  0  0  0  0  0  0  0  0  0  0
   -8.1441    9.2486    0.0000 C   0  0  0  0  0  0  0  0  0  0  0  0
   -8.7890   10.6029    0.0000 O   0  0  0  0  0  0  0  0  0  0  0  0
   -9.5153    8.6406    0.0000 N   0  0  0  0  0  0  0  0  0  0  0  0
  -10.7467    7.7840    0.0000 C   0  0  0  0  0  0  0  0  0  0  0  0
  -12.1741    8.2451    0.0000 C   0  0  0  0  0  0  0  0  0  0  0  0
  -12.4884    9.7118    0.0000 C   0  0  0  0  0  0  0  0  0  0  0  0
  -13.9158   10.1730    0.0000 C   0  0  0  0  0  0  0  0  0  0  0  0
  -14.2301   11.6397    0.0000 N   0  0  0  0  0  0  0  0  0  0  0  0
  -15.6574   12.1008    0.0000 C   0  0  0  0  0  0  0  0  0  0  0  0
  -15.9718   13.5675    0.0000 N   0  0  0  0  0  0  0  0  0  0  0  0
  -16.7705   11.0953    0.0000 N   0  0  0  0  0  0  0  0  0  0  0  0
  -11.7937    6.7099    0.0000 C   0  0  0  0  0  0  0  0  0  0  0  0
  -13.0684    7.5006    0.0000 O   0  0  0  0  0  0  0  0  0  0  0  0
  -12.6186    5.4570    0.0000 N   0  0  0  0  0  0  0  0  0  0  0  0
  -13.1914    4.0707    0.0000 C   0  0  0  0  0  0  0  0  0  0  0  0
  -14.6415    3.6869    0.0000 C   0  0  0  0  0  0  0  0  0  0  0  0
  -15.6988    4.7509    0.0000 C   0  0  0  0  0  0  0  0  0  0  0  0
  -17.1489    4.3671    0.0000 C   0  0  0  0  0  0  0  0  0  0  0  0
  -18.2063    5.4310    0.0000 N   0  0  0  0  0  0  0  0  0  0  0  0
  -19.6564    5.0473    0.0000 C   0  0  0  0  0  0  0  0  0  0  0  0
  -20.7138    6.1112    0.0000 N   0  0  0  0  0  0  0  0  0  0  0  0
  -20.0491    3.5996    0.0000 N   0  0  0  0  0  0  0  0  0  0  0  0
  -13.4915    2.6010    0.0000 C   0  0  0  0  0  0  0  0  0  0  0  0
  -14.9913    2.5770    0.0000 O   0  0  0  0  0  0  0  0  0  0  0  0
  -13.5080    1.1011    0.0000 N   0  0  0  0  0  0  0  0  0  0  0  0
  -13.2404   -0.3748    0.0000 C   0  0  0  0  0  0  0  0  0  0  0  0
  -14.2528   -1.4816    0.0000 C   0  0  0  0  0  0  0  0  0  0  0  0
  -15.7175   -1.1583    0.0000 C   0  0  0  0  0  0  0  0  0  0  0  0
  -16.7299   -2.2651    0.0000 C   0  0  0  0  0  0  0  0  0  0  0  0
  -18.1947   -1.9417    0.0000 N   0  0  0  0  0  0  0  0  0  0  0  0
  -19.2071   -3.0485    0.0000 C   0  0  0  0  0  0  0  0  0  0  0  0
  -20.6718   -2.7251    0.0000 N   0  0  0  0  0  0  0  0  0  0  0  0
  -18.7548   -4.4787    0.0000 N   0  0  0  0  0  0  0  0  0  0  0  0
  -12.6983   -1.7734    0.0000 C   0  0  0  0  0  0  0  0  0  0  0  0
  -13.9470   -2.6045    0.0000 O   0  0  0  0  0  0  0  0  0  0  0  0
  -11.9013   -3.0442    0.0000 N   0  0  0  0  0  0  0  0  0  0  0  0
  -10.8782   -4.1411    0.0000 C   0  0  0  0  0  0  0  0  0  0  0  0
   -9.6660   -5.0246    0.0000 C   0  0  0  0  0  0  0  0  0  0  0  0
   -8.3085   -5.6628    0.0000 C   0  0  0  0  0  0  0  0  0  0  0  0
   -6.8547   -6.0324    0.0000 C   0  0  0  0  0  0  0  0  0  0  0  0
   -5.3573   -6.1203    0.0000 C   0  0  0  0  0  0  0  0  0  0  0  0
  -12.3153   -4.5707    0.0000 C   0  0  0  0  0  0  0  0  0  0  0  0
  -11.1315   -5.6196    0.0000 C   0  0  0  0  0  0  0  0  0  0  0  0
  -10.2440   -6.8289    0.0000 O   0  0  0  0  0  0  0  0  0  0  0  0
  -12.5385   -6.1394    0.0000 N   0  0  0  0  0  0  0  0  0  0  0  0
  -12.7918   -7.6179    0.0000 C   0  0  0  0  0  0  0  0  0  0  0  0
  -12.5242   -9.0938    0.0000 C   0  0  0  0  0  0  0  0  0  0  0  0
  -13.6686  -10.0636    0.0000 C   0  0  0  0  0  0  0  0  0  0  0  0
  -13.4010  -11.5395    0.0000 C   0  0  0  0  0  0  0  0  0  0  0  0
  -14.5453  -12.5092    0.0000 N   0  0  0  0  0  0  0  0  0  0  0  0
  -14.2777  -13.9852    0.0000 C   0  0  0  0  0  0  0  0  0  0  0  0
  -15.4221  -14.9549    0.0000 N   0  0  0  0  0  0  0  0  0  0  0  0
  -12.8657  -14.4914    0.0000 N   0  0  0  0  0  0  0  0  0  0  0  0
  -14.1989   -8.1377    0.0000 C   0  0  0  0  0  0  0  0  0  0  0  0
  -15.3526   -7.1791    0.0000 O   0  0  0  0  0  0  0  0  0  0  0  0
  -14.4522   -9.6162    0.0000 N   0  0  0  0  0  0  0  0  0  0  0  0
  -15.8592  -10.1361    0.0000 C   0  0  0  0  0  0  0  0  0  0  0  0
  -17.3592  -10.1433    0.0000 C   0  0  0  0  0  0  0  0  0  0  0  0
  -18.1155   -8.8479    0.0000 C   0  0  0  0  0  0  0  0  0  0  0  0
  -19.6155   -8.8552    0.0000 C   0  0  0  0  0  0  0  0  0  0  0  0
  -20.3718   -7.5598    0.0000 N   0  0  0  0  0  0  0  0  0  0  0  0
  -21.8717   -7.5671    0.0000 C   0  0  0  0  0  0  0  0  0  0  0  0
  -22.6280   -6.2717    0.0000 N   0  0  0  0  0  0  0  0  0  0  0  0
  -22.6154   -8.8697    0.0000 N   0  0  0  0  0  0  0  0  0  0  0  0
  -16.1125  -11.6145    0.0000 C   0  0  0  0  0  0  0  0  0  0  0  0
  -17.4457  -12.3020    0.0000 O   0  0  0  0  0  0  0  0  0  0  0  0
  -15.2251  -12.8238    0.0000 O   0  0  0  0  0  0  0  0  0  0  0  0
   23.7273    1.1015    0.0000 H   0  0  0  0  0  0  0  0  0  0  0  0
   25.2552   -3.1233    0.0000 H   0  0  0  0  0  0  0  0  0  0  0  0
   28.1847   -3.7700    0.0000 H   0  0  0  0  0  0  0  0  0  0  0  0
   26.0428    1.7988    0.0000 H   0  0  0  0  0  0  0  0  0  0  0  0
   32.1462    5.5487    0.0000 H   0  0  0  0  0  0  0  0  0  0  0  0
   34.7089    1.0285    0.0000 H   0  0  0  0  0  0  0  0  0  0  0  0
   32.0991   -0.4511    0.0000 H   0  0  0  0  0  0  0  0  0  0  0  0
   36.0256    3.2682    0.0000 H   0  0  0  0  0  0  0  0  0  0  0  0
   26.9031   -0.4103    0.0000 H   0  0  0  0  0  0  0  0  0  0  0  0
   24.2365    1.2746    0.0000 H   0  0  0  0  0  0  0  0  0  0  0  0
   26.9502    5.5895    0.0000 H   0  0  0  0  0  0  0  0  0  0  0  0
   24.3522    5.6099    0.0000 H   0  0  0  0  0  0  0  0  0  0  0  0
   21.4212    0.3838    0.0000 H   0  0  0  0  0  0  0  0  0  0  0  0
   22.1269   -2.9580    0.0000 H   0  0  0  0  0  0  0  0  0  0  0  0
   20.2883   -3.5395    0.0000 H   0  0  0  0  0  0  0  0  0  0  0  0
   19.9691   -0.4435    0.0000 H   0  0  0  0  0  0  0  0  0  0  0  0
   18.1305   -1.0249    0.0000 H   0  0  0  0  0  0  0  0  0  0  0  0
   16.4669   -1.1830    0.0000 H   0  0  0  0  0  0  0  0  0  0  0  0
   14.9926   -2.5308    0.0000 H   0  0  0  0  0  0  0  0  0  0  0  0
   16.4581   -5.8437    0.0000 H   0  0  0  0  0  0  0  0  0  0  0  0
   19.5867   -5.6997    0.0000 H   0  0  0  0  0  0  0  0  0  0  0  0
   19.8371   -4.4859    0.0000 H   0  0  0  0  0  0  0  0  0  0  0  0
   19.5149   -2.7243    0.0000 H   0  0  0  0  0  0  0  0  0  0  0  0
   17.9459   -2.4429    0.0000 H   0  0  0  0  0  0  0  0  0  0  0  0
   13.3752   -2.1103    0.0000 H   0  0  0  0  0  0  0  0  0  0  0  0
   11.5289   -2.8726    0.0000 H   0  0  0  0  0  0  0  0  0  0  0  0
   13.1700   -6.9666    0.0000 H   0  0  0  0  0  0  0  0  0  0  0  0
   11.6599   -6.3427    0.0000 H   0  0  0  0  0  0  0  0  0  0  0  0
   15.7123   -4.6011    0.0000 H   0  0  0  0  0  0  0  0  0  0  0  0
   14.2895   -3.7978    0.0000 H   0  0  0  0  0  0  0  0  0  0  0  0
   15.7489   -7.9143    0.0000 H   0  0  0  0  0  0  0  0  0  0  0  0
   14.0611   -7.3348    0.0000 H   0  0  0  0  0  0  0  0  0  0  0  0
   17.6748   -5.0805    0.0000 H   0  0  0  0  0  0  0  0  0  0  0  0
   20.0989   -8.4684    0.0000 H   0  0  0  0  0  0  0  0  0  0  0  0
   18.0391  -10.0518    0.0000 H   0  0  0  0  0  0  0  0  0  0  0  0
   15.6379   -9.0597    0.0000 H   0  0  0  0  0  0  0  0  0  0  0  0
   10.1528   -1.9243    0.0000 H   0  0  0  0  0  0  0  0  0  0  0  0
    8.1571   -2.0091    0.0000 H   0  0  0  0  0  0  0  0  0  0  0  0
    8.4812   -6.4365    0.0000 H   0  0  0  0  0  0  0  0  0  0  0  0
    7.0583   -5.1350    0.0000 H   0  0  0  0  0  0  0  0  0  0  0  0
   11.4970   -5.0642    0.0000 H   0  0  0  0  0  0  0  0  0  0  0  0
   10.4349   -3.8227    0.0000 H   0  0  0  0  0  0  0  0  0  0  0  0
   12.3794   -8.4450    0.0000 H   0  0  0  0  0  0  0  0  0  0  0  0
   13.2183   -6.2033    0.0000 H   0  0  0  0  0  0  0  0  0  0  0  0
    7.1884   -0.6474    0.0000 H   0  0  0  0  0  0  0  0  0  0  0  0
    5.2840   -0.0445    0.0000 H   0  0  0  0  0  0  0  0  0  0  0  0
    5.8054   -3.8825    0.0000 H   0  0  0  0  0  0  0  0  0  0  0  0
    4.0743   -4.3157    0.0000 H   0  0  0  0  0  0  0  0  0  0  0  0
    3.1824   -2.6060    0.0000 H   0  0  0  0  0  0  0  0  0  0  0  0
    4.9141    1.3992    0.0000 H   0  0  0  0  0  0  0  0  0  0  0  0
    3.5757    0.3499    0.0000 H   0  0  0  0  0  0  0  0  0  0  0  0
    3.0416   -0.9691    0.0000 H   0  0  0  0  0  0  0  0  0  0  0  0
    3.1154   -1.5511    0.0000 H   0  0  0  0  0  0  0  0  0  0  0  0
    2.5223   -2.4662    0.0000 H   0  0  0  0  0  0  0  0  0  0  0  0
    2.4437   -2.6144    0.0000 H   0  0  0  0  0  0  0  0  0  0  0  0
    1.7353   -3.8486    0.0000 H   0  0  0  0  0  0  0  0  0  0  0  0
    1.4185   -4.2424    0.0000 H   0  0  0  0  0  0  0  0  0  0  0  0
    0.5396   -5.1441    0.0000 H   0  0  0  0  0  0  0  0  0  0  0  0
    0.1540   -5.4708    0.0000 H   0  0  0  0  0  0  0  0  0  0  0  0
   -0.8796   -6.1898    0.0000 H   0  0  0  0  0  0  0  0  0  0  0  0
   -1.3201   -6.4377    0.0000 H   0  0  0  0  0  0  0  0  0  0  0  0
   -2.6538   -6.9340    0.0000 H   0  0  0  0  0  0  0  0  0  0  0  0
   -3.5328   -7.3848    0.0000 H   0  0  0  0  0  0  0  0  0  0  0  0
    4.9196    1.8969    0.0000 H   0  0  0  0  0  0  0  0  0  0  0  0
    4.6026    3.4997    0.0000 H   0  0  0  0  0  0  0  0  0  0  0  0
    2.8417    3.7886    0.0000 H   0  0  0  0  0  0  0  0  0  0  0  0
    3.1652    4.9836    0.0000 H   0  0  0  0  0  0  0  0  0  0  0  0
    2.5280    5.7811    0.0000 H   0  0  0  0  0  0  0  0  0  0  0  0
    1.8569    8.7955    0.0000 H   0  0  0  0  0  0  0  0  0  0  0  0
    0.4000    8.0560    0.0000 H   0  0  0  0  0  0  0  0  0  0  0  0
    4.6357    6.9907    0.0000 H   0  0  0  0  0  0  0  0  0  0  0  0
    3.4010    5.9207    0.0000 H   0  0  0  0  0  0  0  0  0  0  0  0
    4.0130   10.2451    0.0000 H   0  0  0  0  0  0  0  0  0  0  0  0
    2.4741    9.3418    0.0000 H   0  0  0  0  0  0  0  0  0  0  0  0
    6.1874    7.6111    0.0000 H   0  0  0  0  0  0  0  0  0  0  0  0
    8.1661   11.6527    0.0000 H   0  0  0  0  0  0  0  0  0  0  0  0
    5.8327   12.7952    0.0000 H   0  0  0  0  0  0  0  0  0  0  0  0
    3.6766   11.3456    0.0000 H   0  0  0  0  0  0  0  0  0  0  0  0
   -0.1151    9.3529    0.0000 H   0  0  0  0  0  0  0  0  0  0  0  0
   -1.0314    9.7221    0.0000 H   0  0  0  0  0  0  0  0  0  0  0  0
   -2.9669   11.8077    0.0000 H   0  0  0  0  0  0  0  0  0  0  0  0
   -3.9612   10.3259    0.0000 H   0  0  0  0  0  0  0  0  0  0  0  0
   -0.2291   13.6753    0.0000 H   0  0  0  0  0  0  0  0  0  0  0  0
   -2.8097   13.3748    0.0000 H   0  0  0  0  0  0  0  0  0  0  0  0
   -4.9138   11.1166    0.0000 H   0  0  0  0  0  0  0  0  0  0  0  0
   -5.9040   10.8683    0.0000 H   0  0  0  0  0  0  0  0  0  0  0  0
   -8.9247   11.5101    0.0000 H   0  0  0  0  0  0  0  0  0  0  0  0
   -8.8573    9.8776    0.0000 H   0  0  0  0  0  0  0  0  0  0  0  0
   -6.1287   13.2880    0.0000 H   0  0  0  0  0  0  0  0  0  0  0  0
   -5.6682   11.7203    0.0000 H   0  0  0  0  0  0  0  0  0  0  0  0
   -9.3477   14.0735    0.0000 H   0  0  0  0  0  0  0  0  0  0  0  0
   -9.1652   12.2984    0.0000 H   0  0  0  0  0  0  0  0  0  0  0  0
   -6.0484   14.9572    0.0000 H   0  0  0  0  0  0  0  0  0  0  0  0
   -8.9028   18.4361    0.0000 H   0  0  0  0  0  0  0  0  0  0  0  0
  -10.9113   16.7881    0.0000 H   0  0  0  0  0  0  0  0  0  0  0  0
  -10.4884   14.2247    0.0000 H   0  0  0  0  0  0  0  0  0  0  0  0
  -10.0861   10.0277    0.0000 H   0  0  0  0  0  0  0  0  0  0  0  0
  -10.7849    9.2835    0.0000 H   0  0  0  0  0  0  0  0  0  0  0  0
  -13.6731    8.1903    0.0000 H   0  0  0  0  0  0  0  0  0  0  0  0
  -12.7337    6.8535    0.0000 H   0  0  0  0  0  0  0  0  0  0  0  0
  -12.2821   11.1976    0.0000 H   0  0  0  0  0  0  0  0  0  0  0  0
  -11.0472   10.1278    0.0000 H   0  0  0  0  0  0  0  0  0  0  0  0
  -15.4148   10.1181    0.0000 H   0  0  0  0  0  0  0  0  0  0  0  0
  -14.3016    8.7235    0.0000 H   0  0  0  0  0  0  0  0  0  0  0  0
  -13.1170   12.6452    0.0000 H   0  0  0  0  0  0  0  0  0  0  0  0
  -17.3991   14.0287    0.0000 H   0  0  0  0  0  0  0  0  0  0  0  0
  -18.1978   11.5564    0.0000 H   0  0  0  0  0  0  0  0  0  0  0  0
  -16.4562    9.6286    0.0000 H   0  0  0  0  0  0  0  0  0  0  0  0
  -13.8487    6.3154    0.0000 H   0  0  0  0  0  0  0  0  0  0  0  0
  -14.0342    5.3115    0.0000 H   0  0  0  0  0  0  0  0  0  0  0  0
  -15.8728    2.8304    0.0000 H   0  0  0  0  0  0  0  0  0  0  0  0
  -14.3599    2.2136    0.0000 H   0  0  0  0  0  0  0  0  0  0  0  0
  -16.3286    6.1123    0.0000 H   0  0  0  0  0  0  0  0  0  0  0  0
  -14.7113    5.8799    0.0000 H   0  0  0  0  0  0  0  0  0  0  0  0
  -18.3803    3.5105    0.0000 H   0  0  0  0  0  0  0  0  0  0  0  0
  -16.6898    2.9391    0.0000 H   0  0  0  0  0  0  0  0  0  0  0  0
  -17.8136    6.8787    0.0000 H   0  0  0  0  0  0  0  0  0  0  0  0
  -22.1638    5.7275    0.0000 H   0  0  0  0  0  0  0  0  0  0  0  0
  -21.4992    3.2159    0.0000 H   0  0  0  0  0  0  0  0  0  0  0  0
  -18.9917    2.5357    0.0000 H   0  0  0  0  0  0  0  0  0  0  0  0
  -15.0069    1.1581    0.0000 H   0  0  0  0  0  0  0  0  0  0  0  0
  -14.6202    0.2134    0.0000 H   0  0  0  0  0  0  0  0  0  0  0  0
  -14.8256   -2.8680    0.0000 H   0  0  0  0  0  0  0  0  0  0  0  0
  -13.2194   -2.5688    0.0000 H   0  0  0  0  0  0  0  0  0  0  0  0
  -16.9833   -0.3534    0.0000 H   0  0  0  0  0  0  0  0  0  0  0  0
  -15.4972    0.3255    0.0000 H   0  0  0  0  0  0  0  0  0  0  0  0
  -17.3027   -3.6514    0.0000 H   0  0  0  0  0  0  0  0  0  0  0  0
  -15.5717   -3.2182    0.0000 H   0  0  0  0  0  0  0  0  0  0  0  0
  -18.6470   -0.5115    0.0000 H   0  0  0  0  0  0  0  0  0  0  0  0
  -21.6842   -3.8319    0.0000 H   0  0  0  0  0  0  0  0  0  0  0  0
  -19.6247   -5.7006    0.0000 H   0  0  0  0  0  0  0  0  0  0  0  0
  -17.2900   -4.8021    0.0000 H   0  0  0  0  0  0  0  0  0  0  0  0
  -13.1931   -3.8066    0.0000 H   0  0  0  0  0  0  0  0  0  0  0  0
   -9.6349   -6.5243    0.0000 H   0  0  0  0  0  0  0  0  0  0  0  0
  -10.7885   -6.0196    0.0000 H   0  0  0  0  0  0  0  0  0  0  0  0
   -8.1753   -7.1568    0.0000 H   0  0  0  0  0  0  0  0  0  0  0  0
   -9.2224   -6.8522    0.0000 H   0  0  0  0  0  0  0  0  0  0  0  0
   -6.2685   -7.4131    0.0000 H   0  0  0  0  0  0  0  0  0  0  0  0
   -7.6855   -7.2814    0.0000 H   0  0  0  0  0  0  0  0  0  0  0  0
   -5.3025   -7.6193    0.0000 H   0  0  0  0  0  0  0  0  0  0  0  0
  -13.0048   -5.9029    0.0000 H   0  0  0  0  0  0  0  0  0  0  0  0
  -13.8128   -4.4828    0.0000 H   0  0  0  0  0  0  0  0  0  0  0  0
  -12.8442   -3.1670    0.0000 H   0  0  0  0  0  0  0  0  0  0  0  0
  -13.8005   -5.3286    0.0000 H   0  0  0  0  0  0  0  0  0  0  0  0
  -11.2919   -7.6106    0.0000 H   0  0  0  0  0  0  0  0  0  0  0  0
  -11.6157  -10.2874    0.0000 H   0  0  0  0  0  0  0  0  0  0  0  0
  -11.1172   -8.5740    0.0000 H   0  0  0  0  0  0  0  0  0  0  0  0
  -15.0756  -10.5834    0.0000 H   0  0  0  0  0  0  0  0  0  0  0  0
  -14.9446   -9.2750    0.0000 H   0  0  0  0  0  0  0  0  0  0  0  0
  -12.6447  -12.8349    0.0000 H   0  0  0  0  0  0  0  0  0  0  0  0
  -11.9411  -11.1950    0.0000 H   0  0  0  0  0  0  0  0  0  0  0  0
  -16.0379  -12.3597    0.0000 H   0  0  0  0  0  0  0  0  0  0  0  0
  -15.1545  -16.4308    0.0000 H   0  0  0  0  0  0  0  0  0  0  0  0
  -12.5981  -15.9673    0.0000 H   0  0  0  0  0  0  0  0  0  0  0  0
  -11.7213  -13.5216    0.0000 H   0  0  0  0  0  0  0  0  0  0  0  0
  -13.5647  -10.8255    0.0000 H   0  0  0  0  0  0  0  0  0  0  0  0
  -15.9449   -8.6385    0.0000 H   0  0  0  0  0  0  0  0  0  0  0  0
  -18.6924  -10.8308    0.0000 H   0  0  0  0  0  0  0  0  0  0  0  0
  -17.2735  -11.6409    0.0000 H   0  0  0  0  0  0  0  0  0  0  0  0
  -18.3831   -7.3720    0.0000 H   0  0  0  0  0  0  0  0  0  0  0  0
  -16.7823   -8.1604    0.0000 H   0  0  0  0  0  0  0  0  0  0  0  0
  -21.0225   -9.3751    0.0000 H   0  0  0  0  0  0  0  0  0  0  0  0
  -19.5298  -10.3527    0.0000 H   0  0  0  0  0  0  0  0  0  0  0  0
  -19.4748   -6.3575    0.0000 H   0  0  0  0  0  0  0  0  0  0  0  0
  -24.1280   -6.2790    0.0000 H   0  0  0  0  0  0  0  0  0  0  0  0
  -24.1154   -8.8770    0.0000 H   0  0  0  0  0  0  0  0  0  0  0  0
  -21.8592  -10.1651    0.0000 H   0  0  0  0  0  0  0  0  0  0  0  0
  -15.2121  -14.0516    0.0000 H   0  0  0  0  0  0  0  0  0  0  0  0
  1  2  1  0
  2  3  1  0
  3  4  2  0
  4  5  1  0
  5  6  2  0
  6  7  1  0
  7  8  2  0
  7  9  1  0
  9 10  1  0
 10 11  1  0
 11 12  2  0
  9 13  1  0
 13 14  1  0
 14 15  2  0
 15 16  1  0
 16 17  2  0
 17 18  1  0
 16 19  1  0
 14 20  1  0
 20 21  1  0
 21 22  2  0
 22 23  1  0
 23 24  2  0
 24 25  1  0
 25 26  2  0
 25 27  1  0
  1 28  2  0
  1 29  1  0
 29 30  1  0
 30 31  1  0
 31 32  1  0
 32 33  2  0
 32 34  1  0
 34 35  1  0
 35 36  1  0
 36 37  1  0
 36 38  1  0
 35 39  1  0
 39 40  2  0
 39 41  1  0
 41 42  1  0
 42 43  1  0
 43 44  1  0
 44 45  1  0
 45 46  1  0
 46 47  1  0
 47 48  2  3
 47 49  1  0
 42 50  1  0
 50 51  2  0
 50 52  1  0
 52 53  1  0
 53 54  1  0
 54 55  1  0
 55 56  1  0
 56 57  1  0
 56 58  2  0
 53 59  1  0
 59 60  2  0
 59 61  1  0
 61 62  1  0
 62 63  1  0
 62 64  1  0
 64 65  2  0
 64 66  1  0
 67 66  1  6
 67 68  1  0
 68 69  1  0
 69 70  1  0
 70 71  1  0
 71 72  1  0
 72 73  1  0
 73 74  1  0
 67 75  1  0
 67 76  1  0
 76 77  2  0
 76 78  1  0
 78 79  1  0
 79 80  1  0
 80 81  1  0
 81 82  1  0
 82 83  1  0
 83 84  1  0
 84 85  2  3
 84 86  1  0
 79 87  1  0
 87 88  2  0
 87 89  1  0
 89 90  1  0
 90 91  1  0
 91 92  1  0
 92 93  1  0
 92 94  2  0
 90 95  1  0
 95 96  2  0
 95 97  1  0
 97 98  1  0
 98 99  1  0
 99100  1  0
100101  1  0
101102  1  0
102103  1  0
103104  2  3
103105  1  0
 98106  1  0
106107  2  0
106108  1  0
108109  1  0
109110  1  0
110111  1  0
111112  1  0
112113  1  0
113114  1  0
114115  2  3
114116  1  0
109117  1  0
117118  2  0
117119  1  0
119120  1  0
120121  1  0
121122  1  0
122123  1  0
123124  1  0
124125  1  0
125126  2  3
125127  1  0
120128  1  0
128129  2  0
128130  1  0
130131  1  0
131132  1  0
132133  1  0
133134  1  0
134135  1  0
135136  1  0
136137  2  3
136138  1  0
131139  1  0
139140  2  0
139141  1  0
141142  1  0
142143  1  0
143144  1  0
144145  1  0
145146  1  0
142147  1  0
142148  1  1
148149  2  0
148150  1  0
150151  1  0
151152  1  0
152153  1  0
153154  1  0
154155  1  0
155156  1  0
156157  2  3
156158  1  0
151159  1  0
159160  2  0
159161  1  0
161162  1  0
162163  1  0
163164  1  0
164165  1  0
165166  1  0
166167  1  0
167168  2  3
167169  1  0
162170  1  0
170171  2  0
170172  1  0
  8  3  1  0
 11  6  1  0
 74146  2  0
 18 13  2  0
 22  9  1  0
 26 21  1  0
  2173  1  0
  4174  1  0
  5175  1  0
  8176  1  0
 15177  1  0
 17178  1  0
 18179  1  0
 19180  1  0
 23181  1  0
 24182  1  0
 26183  1  0
 27184  1  0
 29185  1  0
 30186  1  0
 30187  1  0
 31188  1  0
 31189  1  0
 34190  1  0
 35191  1  1
 36192  1  6
 37193  1  0
 38194  1  0
 38195  1  0
 38196  1  0
 41197  1  0
 42198  1  1
 43199  1  0
 43200  1  0
 44201  1  0
 44202  1  0
 45203  1  0
 45204  1  0
 46205  1  0
 48206  1  0
 49207  1  0
 49208  1  0
 52209  1  0
 53210  1  1
 54211  1  0
 54212  1  0
 55213  1  0
 55214  1  0
 57215  1  0
 57216  1  0
 61217  1  0
 62218  1  1
 63219  1  0
 63220  1  0
 63221  1  0
 66222  1  0
 68223  1  0
 68224  1  0
 69225  1  0
 69226  1  0
 70227  1  0
 70228  1  0
 71229  1  0
 71230  1  0
 72231  1  0
 72232  1  0
 73233  1  0
 73234  1  0
 74235  1  0
 75236  1  0
 75237  1  0
 75238  1  0
 78239  1  0
 79240  1  6
 80241  1  0
 80242  1  0
 81243  1  0
 81244  1  0
 82245  1  0
 82246  1  0
 83247  1  0
 85248  1  0
 86249  1  0
 86250  1  0
 89251  1  0
 90252  1  6
 91253  1  0
 91254  1  0
 93255  1  0
 93256  1  0
 97257  1  0
 98258  1  6
 99259  1  0
 99260  1  0
100261  1  0
100262  1  0
101263  1  0
101264  1  0
102265  1  0
104266  1  0
105267  1  0
105268  1  0
108269  1  0
109270  1  6
110271  1  0
110272  1  0
111273  1  0
111274  1  0
112275  1  0
112276  1  0
113277  1  0
115278  1  0
116279  1  0
116280  1  0
119281  1  0
120282  1  6
121283  1  0
121284  1  0
122285  1  0
122286  1  0
123287  1  0
123288  1  0
124289  1  0
126290  1  0
127291  1  0
127292  1  0
130293  1  0
131294  1  6
132295  1  0
132296  1  0
133297  1  0
133298  1  0
134299  1  0
134300  1  0
135301  1  0
137302  1  0
138303  1  0
138304  1  0
141305  1  0
143306  1  0
143307  1  0
144308  1  0
144309  1  0
145310  1  0
145311  1  0
146312  1  0
147313  1  0
147314  1  0
147315  1  0
150316  1  0
151317  1  1
152318  1  0
152319  1  0
153320  1  0
153321  1  0
154322  1  0
154323  1  0
155324  1  0
157325  1  0
158326  1  0
158327  1  0
161328  1  0
162329  1  6
163330  1  0
163331  1  0
164332  1  0
164333  1  0
165334  1  0
165335  1  0
166336  1  0
168337  1  0
169338  1  0
169339  1  0
172340  1  0
M  END
