
     RDKit          2D

295298  0  0  0  0  0  0  0  0999 V2000
  -28.9123   -1.4777    0.0000 N   0  0  0  0  0  0  0  0  0  0  0  0
  -27.4331   -1.2291    0.0000 C   0  0  0  0  0  0  0  0  0  0  0  0
  -26.4782   -2.3859    0.0000 C   0  0  0  0  0  0  0  0  0  0  0  0
  -24.9989   -2.1373    0.0000 C   0  0  0  0  0  0  0  0  0  0  0  0
  -24.4746   -0.7320    0.0000 O   0  0  0  0  0  0  0  0  0  0  0  0
  -24.0440   -3.2941    0.0000 N   0  0  0  0  0  0  0  0  0  0  0  0
  -22.5647   -3.0455    0.0000 C   0  0  0  0  0  0  0  0  0  0  0  0
  -22.5768   -4.5455    0.0000 C   0  0  0  0  0  0  0  0  0  0  0  0
  -23.8818   -5.2850    0.0000 C   0  0  0  0  0  0  0  0  0  0  0  0
  -23.8939   -6.7850    0.0000 C   0  0  0  0  0  0  0  0  0  0  0  0
  -25.1989   -7.5245    0.0000 C   0  0  0  0  0  0  0  0  0  0  0  0
  -25.2110   -9.0244    0.0000 N   0  0  0  0  0  0  0  0  0  0  0  0
  -21.2597   -2.3060    0.0000 C   0  0  0  0  0  0  0  0  0  0  0  0
  -19.9668   -3.0664    0.0000 O   0  0  0  0  0  0  0  0  0  0  0  0
  -21.2476   -0.8061    0.0000 N   0  0  0  0  0  0  0  0  0  0  0  0
  -19.9426   -0.0665    0.0000 C   0  0  0  0  0  0  0  0  0  0  0  0
  -20.8975    1.0903    0.0000 C   0  0  0  0  0  0  0  0  0  0  0  0
  -21.3992    2.5039    0.0000 O   0  0  0  0  0  0  0  0  0  0  0  0
  -22.3768    0.8417    0.0000 C   0  0  0  0  0  0  0  0  0  0  0  0
  -18.4634    0.1821    0.0000 C   0  0  0  0  0  0  0  0  0  0  0  0
  -18.1142    1.6409    0.0000 O   0  0  0  0  0  0  0  0  0  0  0  0
  -17.5085   -0.9747    0.0000 N   0  0  0  0  0  0  0  0  0  0  0  0
  -16.0292   -0.7262    0.0000 C   0  0  0  0  0  0  0  0  0  0  0  0
  -16.5309    0.6875    0.0000 C   0  0  0  0  0  0  0  0  0  0  0  0
  -15.5575    1.8287    0.0000 C   0  0  0  0  0  0  0  0  0  0  0  0
  -16.0592    3.2424    0.0000 C   0  0  0  0  0  0  0  0  0  0  0  0
  -15.0858    4.3836    0.0000 C   0  0  0  0  0  0  0  0  0  0  0  0
  -13.6107    4.1113    0.0000 C   0  0  0  0  0  0  0  0  0  0  0  0
  -12.6373    5.2526    0.0000 O   0  0  0  0  0  0  0  0  0  0  0  0
  -13.1090    2.6977    0.0000 C   0  0  0  0  0  0  0  0  0  0  0  0
  -14.0824    1.5564    0.0000 C   0  0  0  0  0  0  0  0  0  0  0  0
  -14.5541   -0.9985    0.0000 C   0  0  0  0  0  0  0  0  0  0  0  0
  -13.4489    0.0156    0.0000 O   0  0  0  0  0  0  0  0  0  0  0  0
  -14.0525   -2.4121    0.0000 N   0  0  0  0  0  0  0  0  0  0  0  0
  -12.5774   -2.6845    0.0000 C   0  0  0  0  0  0  0  0  0  0  0  0
  -13.1017   -4.0898    0.0000 C   0  0  0  0  0  0  0  0  0  0  0  0
  -14.5810   -4.3384    0.0000 C   0  0  0  0  0  0  0  0  0  0  0  0
  -15.1053   -5.7438    0.0000 C   0  0  0  0  0  0  0  0  0  0  0  0
  -16.5846   -5.9924    0.0000 N   0  0  0  0  0  0  0  0  0  0  0  0
  -17.1090   -7.3977    0.0000 C   0  0  0  0  0  0  0  0  0  0  0  0
  -18.5882   -7.6463    0.0000 N   0  0  0  0  0  0  0  0  0  0  0  0
  -16.1540   -8.5545    0.0000 N   0  0  0  0  0  0  0  0  0  0  0  0
  -11.0981   -2.4359    0.0000 C   0  0  0  0  0  0  0  0  0  0  0  0
  -10.1432   -3.5927    0.0000 O   0  0  0  0  0  0  0  0  0  0  0  0
  -10.5738   -1.0305    0.0000 N   0  0  0  0  0  0  0  0  0  0  0  0
   -9.0945   -0.7819    0.0000 C   0  0  0  0  0  0  0  0  0  0  0  0
   -8.5702    0.6234    0.0000 C   0  0  0  0  0  0  0  0  0  0  0  0
   -9.6590    1.6552    0.0000 O   0  0  0  0  0  0  0  0  0  0  0  0
   -7.0909    0.8720    0.0000 N   0  0  0  0  0  0  0  0  0  0  0  0
   -6.5666    2.2774    0.0000 C   0  0  0  0  0  0  0  0  0  0  0  0
   -8.0416    2.5497    0.0000 C   0  0  0  0  0  0  0  0  0  0  0  0
   -5.5932    3.4187    0.0000 C   0  0  0  0  0  0  0  0  0  0  0  0
   -6.2634    4.7606    0.0000 O   0  0  0  0  0  0  0  0  0  0  0  0
   -4.1181    3.1463    0.0000 N   0  0  0  0  0  0  0  0  0  0  0  0
   -3.1447    4.2876    0.0000 C   0  0  0  0  0  0  0  0  0  0  0  0
   -4.4377    5.0480    0.0000 C   0  0  0  0  0  0  0  0  0  0  0  0
   -4.4256    6.5480    0.0000 C   0  0  0  0  0  0  0  0  0  0  0  0
   -5.7186    7.3084    0.0000 C   0  0  0  0  0  0  0  0  0  0  0  0
   -5.7065    8.8083    0.0000 C   0  0  0  0  0  0  0  0  0  0  0  0
   -4.4015    9.5479    0.0000 C   0  0  0  0  0  0  0  0  0  0  0  0
   -3.1085    8.7874    0.0000 C   0  0  0  0  0  0  0  0  0  0  0  0
   -3.1206    7.2875    0.0000 C   0  0  0  0  0  0  0  0  0  0  0  0
   -1.8397    5.0271    0.0000 C   0  0  0  0  0  0  0  0  0  0  0  0
   -1.8276    6.5271    0.0000 O   0  0  0  0  0  0  0  0  0  0  0  0
   -0.5467    4.2667    0.0000 N   0  0  0  0  0  0  0  0  0  0  0  0
    0.7583    5.0062    0.0000 C   0  0  0  0  0  0  0  0  0  0  0  0
   -0.1966    6.1630    0.0000 C   0  0  0  0  0  0  0  0  0  0  0  0
    0.3278    7.5684    0.0000 C   0  0  0  0  0  0  0  0  0  0  0  0
   -0.6271    8.7252    0.0000 C   0  0  0  0  0  0  0  0  0  0  0  0
   -0.1028   10.1305    0.0000 N   0  0  0  0  0  0  0  0  0  0  0  0
   -2.1064    8.4766    0.0000 O   0  0  0  0  0  0  0  0  0  0  0  0
    2.2376    5.2548    0.0000 C   0  0  0  0  0  0  0  0  0  0  0  0
    2.5867    6.7136    0.0000 O   0  0  0  0  0  0  0  0  0  0  0  0
    3.1925    4.0980    0.0000 N   0  0  0  0  0  0  0  0  0  0  0  0
    4.6717    4.3466    0.0000 C   0  0  0  0  0  0  0  0  0  0  0  0
    4.2899    2.8960    0.0000 C   0  0  0  0  0  0  0  0  0  0  0  0
    4.3526    1.3973    0.0000 C   0  0  0  0  0  0  0  0  0  0  0  0
    4.8543   -0.0163    0.0000 C   0  0  0  0  0  0  0  0  0  0  0  0
    5.7504   -1.2192    0.0000 C   0  0  0  0  0  0  0  0  0  0  0  0
    3.8368    5.5927    0.0000 C   0  0  0  0  0  0  0  0  0  0  0  0
    5.4642    5.6202    0.0000 C   0  0  0  0  0  0  0  0  0  0  0  0
    4.3229    6.5936    0.0000 O   0  0  0  0  0  0  0  0  0  0  0  0
    6.5968    6.6037    0.0000 N   0  0  0  0  0  0  0  0  0  0  0  0
    7.9690    7.2096    0.0000 C   0  0  0  0  0  0  0  0  0  0  0  0
    8.4226    8.6393    0.0000 C   0  0  0  0  0  0  0  0  0  0  0  0
    7.4112    9.7471    0.0000 C   0  0  0  0  0  0  0  0  0  0  0  0
    7.8649   11.1768    0.0000 C   0  0  0  0  0  0  0  0  0  0  0  0
    6.0820   10.4421    0.0000 C   0  0  0  0  0  0  0  0  0  0  0  0
    9.4588    7.3841    0.0000 C   0  0  0  0  0  0  0  0  0  0  0  0
    9.5082    8.8833    0.0000 O   0  0  0  0  0  0  0  0  0  0  0  0
   10.9338    7.1118    0.0000 N   0  0  0  0  0  0  0  0  0  0  0  0
   12.2631    6.4167    0.0000 C   0  0  0  0  0  0  0  0  0  0  0  0
   13.6638    6.9535    0.0000 C   0  0  0  0  0  0  0  0  0  0  0  0
   13.8993    8.4349    0.0000 C   0  0  0  0  0  0  0  0  0  0  0  0
   12.7341    9.3795    0.0000 C   0  0  0  0  0  0  0  0  0  0  0  0
   12.9696   10.8609    0.0000 C   0  0  0  0  0  0  0  0  0  0  0  0
   14.3702   11.3977    0.0000 C   0  0  0  0  0  0  0  0  0  0  0  0
   15.5354   10.4531    0.0000 C   0  0  0  0  0  0  0  0  0  0  0  0
   15.2999    8.9717    0.0000 C   0  0  0  0  0  0  0  0  0  0  0  0
   13.3284    5.3608    0.0000 C   0  0  0  0  0  0  0  0  0  0  0  0
   14.5314    6.2568    0.0000 O   0  0  0  0  0  0  0  0  0  0  0  0
   14.0352    4.0377    0.0000 N   0  0  0  0  0  0  0  0  0  0  0  0
   14.3206    2.5651    0.0000 C   0  0  0  0  0  0  0  0  0  0  0  0
   15.6136    1.8047    0.0000 C   0  0  0  0  0  0  0  0  0  0  0  0
   16.9186    2.5442    0.0000 C   0  0  0  0  0  0  0  0  0  0  0  0
   18.2115    1.7838    0.0000 C   0  0  0  0  0  0  0  0  0  0  0  0
   19.5166    2.5233    0.0000 N   0  0  0  0  0  0  0  0  0  0  0  0
   18.1995    0.2838    0.0000 O   0  0  0  0  0  0  0  0  0  0  0  0
   14.1592    1.0738    0.0000 C   0  0  0  0  0  0  0  0  0  0  0  0
   15.6098    0.6920    0.0000 O   0  0  0  0  0  0  0  0  0  0  0  0
   13.5655   -0.3037    0.0000 N   0  0  0  0  0  0  0  0  0  0  0  0
   12.5921   -1.4449    0.0000 C   0  0  0  0  0  0  0  0  0  0  0  0
   11.3256   -2.2486    0.0000 C   0  0  0  0  0  0  0  0  0  0  0  0
    9.8784   -2.6432    0.0000 C   0  0  0  0  0  0  0  0  0  0  0  0
    8.3792   -2.5938    0.0000 C   0  0  0  0  0  0  0  0  0  0  0  0
    6.9612   -2.1046    0.0000 C   0  0  0  0  0  0  0  0  0  0  0  0
   14.0327   -1.8628    0.0000 C   0  0  0  0  0  0  0  0  0  0  0  0
   12.8037   -2.9299    0.0000 C   0  0  0  0  0  0  0  0  0  0  0  0
   11.8826   -4.1138    0.0000 O   0  0  0  0  0  0  0  0  0  0  0  0
   14.1956   -3.4892    0.0000 N   0  0  0  0  0  0  0  0  0  0  0  0
   14.4072   -4.9742    0.0000 C   0  0  0  0  0  0  0  0  0  0  0  0
   14.0982   -6.4420    0.0000 C   0  0  0  0  0  0  0  0  0  0  0  0
   15.0844   -7.5722    0.0000 C   0  0  0  0  0  0  0  0  0  0  0  0
   15.7991   -5.5334    0.0000 C   0  0  0  0  0  0  0  0  0  0  0  0
   16.9793   -4.6076    0.0000 O   0  0  0  0  0  0  0  0  0  0  0  0
   16.0107   -7.0184    0.0000 N   0  0  0  0  0  0  0  0  0  0  0  0
   17.4026   -7.5776    0.0000 C   0  0  0  0  0  0  0  0  0  0  0  0
   18.9017   -7.6271    0.0000 C   0  0  0  0  0  0  0  0  0  0  0  0
   19.6942   -6.3534    0.0000 C   0  0  0  0  0  0  0  0  0  0  0  0
   21.1933   -6.4029    0.0000 C   0  0  0  0  0  0  0  0  0  0  0  0
   21.9858   -5.1293    0.0000 N   0  0  0  0  0  0  0  0  0  0  0  0
   23.4849   -5.1788    0.0000 C   0  0  0  0  0  0  0  0  0  0  0  0
   24.2774   -3.9052    0.0000 N   0  0  0  0  0  0  0  0  0  0  0  0
   24.1917   -6.5018    0.0000 N   0  0  0  0  0  0  0  0  0  0  0  0
   17.6142   -9.0626    0.0000 C   0  0  0  0  0  0  0  0  0  0  0  0
   16.4339   -9.9884    0.0000 O   0  0  0  0  0  0  0  0  0  0  0  0
   19.0060   -9.6218    0.0000 N   0  0  0  0  0  0  0  0  0  0  0  0
   19.2177  -11.1068    0.0000 C   0  0  0  0  0  0  0  0  0  0  0  0
   18.9086  -12.5746    0.0000 C   0  0  0  0  0  0  0  0  0  0  0  0
   20.0253  -13.5762    0.0000 C   0  0  0  0  0  0  0  0  0  0  0  0
   19.7162  -15.0440    0.0000 C   0  0  0  0  0  0  0  0  0  0  0  0
   20.8329  -16.0455    0.0000 O   0  0  0  0  0  0  0  0  0  0  0  0
   18.2906  -15.5103    0.0000 O   0  0  0  0  0  0  0  0  0  0  0  0
   20.6095  -11.6660    0.0000 C   0  0  0  0  0  0  0  0  0  0  0  0
   21.0006  -13.1142    0.0000 O   0  0  0  0  0  0  0  0  0  0  0  0
   21.7898  -10.7403    0.0000 O   0  0  0  0  0  0  0  0  0  0  0  0
  -29.8672   -0.3209    0.0000 H   0  0  0  0  0  0  0  0  0  0  0  0
  -29.4367   -2.8831    0.0000 H   0  0  0  0  0  0  0  0  0  0  0  0
  -27.9348    0.1845    0.0000 H   0  0  0  0  0  0  0  0  0  0  0  0
  -26.1280   -0.4896    0.0000 H   0  0  0  0  0  0  0  0  0  0  0  0
  -27.7832   -3.1254    0.0000 H   0  0  0  0  0  0  0  0  0  0  0  0
  -25.9765   -3.7995    0.0000 H   0  0  0  0  0  0  0  0  0  0  0  0
  -24.4116   -4.0015    0.0000 H   0  0  0  0  0  0  0  0  0  0  0  0
  -23.0664   -1.6319    0.0000 H   0  0  0  0  0  0  0  0  0  0  0  0
  -21.9066   -5.8874    0.0000 H   0  0  0  0  0  0  0  0  0  0  0  0
  -21.0975   -4.2969    0.0000 H   0  0  0  0  0  0  0  0  0  0  0  0
  -25.3804   -5.3514    0.0000 H   0  0  0  0  0  0  0  0  0  0  0  0
  -24.4576   -4.6119    0.0000 H   0  0  0  0  0  0  0  0  0  0  0  0
  -23.2236   -8.1269    0.0000 H   0  0  0  0  0  0  0  0  0  0  0  0
  -22.3954   -6.7186    0.0000 H   0  0  0  0  0  0  0  0  0  0  0  0
  -26.6782   -7.7731    0.0000 H   0  0  0  0  0  0  0  0  0  0  0  0
  -25.8692   -6.1826    0.0000 H   0  0  0  0  0  0  0  0  0  0  0  0
  -26.5160   -9.7640    0.0000 H   0  0  0  0  0  0  0  0  0  0  0  0
  -24.7093  -10.4381    0.0000 H   0  0  0  0  0  0  0  0  0  0  0  0
  -23.7125   -8.9580    0.0000 H   0  0  0  0  0  0  0  0  0  0  0  0
  -22.6237   -0.2089    0.0000 H   0  0  0  0  0  0  0  0  0  0  0  0
  -19.4409   -1.4802    0.0000 H   0  0  0  0  0  0  0  0  0  0  0  0
  -19.5925    1.8298    0.0000 H   0  0  0  0  0  0  0  0  0  0  0  0
  -22.8301    2.9540    0.0000 H   0  0  0  0  0  0  0  0  0  0  0  0
  -23.4656    1.8734    0.0000 H   0  0  0  0  0  0  0  0  0  0  0  0
  -23.6818    0.1021    0.0000 H   0  0  0  0  0  0  0  0  0  0  0  0
  -22.4152   -0.6578    0.0000 H   0  0  0  0  0  0  0  0  0  0  0  0
  -18.0328   -2.3801    0.0000 H   0  0  0  0  0  0  0  0  0  0  0  0
  -16.0413   -2.2261    0.0000 H   0  0  0  0  0  0  0  0  0  0  0  0
  -17.3377    1.9520    0.0000 H   0  0  0  0  0  0  0  0  0  0  0  0
  -17.9761    0.2857    0.0000 H   0  0  0  0  0  0  0  0  0  0  0  0
  -17.5342    3.5147    0.0000 H   0  0  0  0  0  0  0  0  0  0  0  0
  -15.5874    5.7973    0.0000 H   0  0  0  0  0  0  0  0  0  0  0  0
  -11.1622    4.9802    0.0000 H   0  0  0  0  0  0  0  0  0  0  0  0
  -11.6340    2.4253    0.0000 H   0  0  0  0  0  0  0  0  0  0  0  0
  -13.4122    0.2145    0.0000 H   0  0  0  0  0  0  0  0  0  0  0  0
  -15.1577   -3.4262    0.0000 H   0  0  0  0  0  0  0  0  0  0  0  0
  -12.5653   -1.1845    0.0000 H   0  0  0  0  0  0  0  0  0  0  0  0
  -12.9309   -5.5801    0.0000 H   0  0  0  0  0  0  0  0  0  0  0  0
  -11.6267   -4.3622    0.0000 H   0  0  0  0  0  0  0  0  0  0  0  0
  -16.0561   -4.0661    0.0000 H   0  0  0  0  0  0  0  0  0  0  0  0
  -15.1074   -2.9338    0.0000 H   0  0  0  0  0  0  0  0  0  0  0  0
  -15.1174   -7.2437    0.0000 H   0  0  0  0  0  0  0  0  0  0  0  0
  -13.6745   -6.1939    0.0000 H   0  0  0  0  0  0  0  0  0  0  0  0
  -17.5395   -4.8356    0.0000 H   0  0  0  0  0  0  0  0  0  0  0  0
  -19.1126   -9.0517    0.0000 H   0  0  0  0  0  0  0  0  0  0  0  0
  -19.5431   -6.4895    0.0000 H   0  0  0  0  0  0  0  0  0  0  0  0
  -16.6784   -9.9599    0.0000 H   0  0  0  0  0  0  0  0  0  0  0  0
  -14.6748   -8.3059    0.0000 H   0  0  0  0  0  0  0  0  0  0  0  0
  -11.5287    0.1263    0.0000 H   0  0  0  0  0  0  0  0  0  0  0  0
   -9.1066   -2.2819    0.0000 H   0  0  0  0  0  0  0  0  0  0  0  0
   -7.6194   -1.0543    0.0000 H   0  0  0  0  0  0  0  0  0  0  0  0
   -6.1360   -0.2848    0.0000 H   0  0  0  0  0  0  0  0  0  0  0  0
   -5.2736    1.5170    0.0000 H   0  0  0  0  0  0  0  0  0  0  0  0
   -9.1469    1.5356    0.0000 H   0  0  0  0  0  0  0  0  0  0  0  0
   -9.3346    3.3102    0.0000 H   0  0  0  0  0  0  0  0  0  0  0  0
   -7.5173    3.9551    0.0000 H   0  0  0  0  0  0  0  0  0  0  0  0
   -3.6164    1.7327    0.0000 H   0  0  0  0  0  0  0  0  0  0  0  0
   -2.1898    3.1308    0.0000 H   0  0  0  0  0  0  0  0  0  0  0  0
   -5.8685    5.4981    0.0000 H   0  0  0  0  0  0  0  0  0  0  0  0
   -5.2865    3.8113    0.0000 H   0  0  0  0  0  0  0  0  0  0  0  0
   -7.0236    6.5689    0.0000 H   0  0  0  0  0  0  0  0  0  0  0  0
   -6.9995    9.5688    0.0000 H   0  0  0  0  0  0  0  0  0  0  0  0
   -4.3894   11.0478    0.0000 H   0  0  0  0  0  0  0  0  0  0  0  0
   -1.8035    9.5270    0.0000 H   0  0  0  0  0  0  0  0  0  0  0  0
   -1.6820    6.8625    0.0000 H   0  0  0  0  0  0  0  0  0  0  0  0
   -0.5588    2.7667    0.0000 H   0  0  0  0  0  0  0  0  0  0  0  0
    1.2600    3.5926    0.0000 H   0  0  0  0  0  0  0  0  0  0  0  0
   -1.2671    7.2137    0.0000 H   0  0  0  0  0  0  0  0  0  0  0  0
   -1.4172    5.2912    0.0000 H   0  0  0  0  0  0  0  0  0  0  0  0
    1.3012    8.7097    0.0000 H   0  0  0  0  0  0  0  0  0  0  0  0
    1.6207    6.8080    0.0000 H   0  0  0  0  0  0  0  0  0  0  0  0
   -1.0577   11.2873    0.0000 H   0  0  0  0  0  0  0  0  0  0  0  0
    1.3765   10.3791    0.0000 H   0  0  0  0  0  0  0  0  0  0  0  0
    2.3437    2.8613    0.0000 H   0  0  0  0  0  0  0  0  0  0  0  0
    2.9308    3.5306    0.0000 H   0  0  0  0  0  0  0  0  0  0  0  0
    2.9497    2.2225    0.0000 H   0  0  0  0  0  0  0  0  0  0  0  0
    2.8668    1.6031    0.0000 H   0  0  0  0  0  0  0  0  0  0  0  0
    3.1519    0.4983    0.0000 H   0  0  0  0  0  0  0  0  0  0  0  0
    3.3555   -0.0753    0.0000 H   0  0  0  0  0  0  0  0  0  0  0  0
    4.1264   -1.3278    0.0000 H   0  0  0  0  0  0  0  0  0  0  0  0
    4.6944   -2.2846    0.0000 H   0  0  0  0  0  0  0  0  0  0  0  0
    2.3604    5.8578    0.0000 H   0  0  0  0  0  0  0  0  0  0  0  0
    3.6585    7.0821    0.0000 H   0  0  0  0  0  0  0  0  0  0  0  0
    5.0215    6.5127    0.0000 H   0  0  0  0  0  0  0  0  0  0  0  0
    5.7931    7.8702    0.0000 H   0  0  0  0  0  0  0  0  0  0  0  0
    6.7386    8.0675    0.0000 H   0  0  0  0  0  0  0  0  0  0  0  0
    9.4759    9.7073    0.0000 H   0  0  0  0  0  0  0  0  0  0  0  0
    9.8805    8.2866    0.0000 H   0  0  0  0  0  0  0  0  0  0  0  0
    6.3579    8.6791    0.0000 H   0  0  0  0  0  0  0  0  0  0  0  0
    6.9961   12.3996    0.0000 H   0  0  0  0  0  0  0  0  0  0  0  0
    8.7802   12.3652    0.0000 H   0  0  0  0  0  0  0  0  0  0  0  0
    9.2689   10.6490    0.0000 H   0  0  0  0  0  0  0  0  0  0  0  0
    5.8370   11.9220    0.0000 H   0  0  0  0  0  0  0  0  0  0  0  0
    4.5952   10.6406    0.0000 H   0  0  0  0  0  0  0  0  0  0  0  0
    5.6283    9.0124    0.0000 H   0  0  0  0  0  0  0  0  0  0  0  0
   11.2465    8.5788    0.0000 H   0  0  0  0  0  0  0  0  0  0  0  0
   12.3499    7.9142    0.0000 H   0  0  0  0  0  0  0  0  0  0  0  0
   15.1636    6.9788    0.0000 H   0  0  0  0  0  0  0  0  0  0  0  0
   14.2970    5.5937    0.0000 H   0  0  0  0  0  0  0  0  0  0  0  0
   11.2784    9.0175    0.0000 H   0  0  0  0  0  0  0  0  0  0  0  0
   11.8044   11.8056    0.0000 H   0  0  0  0  0  0  0  0  0  0  0  0
   14.6057   12.8791    0.0000 H   0  0  0  0  0  0  0  0  0  0  0  0
   16.9361   10.9898    0.0000 H   0  0  0  0  0  0  0  0  0  0  0  0
   16.4651    8.0270    0.0000 H   0  0  0  0  0  0  0  0  0  0  0  0
   15.4488    4.5394    0.0000 H   0  0  0  0  0  0  0  0  0  0  0  0
   15.4308    3.5738    0.0000 H   0  0  0  0  0  0  0  0  0  0  0  0
   16.5685    0.6479    0.0000 H   0  0  0  0  0  0  0  0  0  0  0  0
   14.9452    0.4618    0.0000 H   0  0  0  0  0  0  0  0  0  0  0  0
   17.8920    3.6855    0.0000 H   0  0  0  0  0  0  0  0  0  0  0  0
   16.1118    3.8088    0.0000 H   0  0  0  0  0  0  0  0  0  0  0  0
   20.8095    1.7629    0.0000 H   0  0  0  0  0  0  0  0  0  0  0  0
   19.5286    4.0233    0.0000 H   0  0  0  0  0  0  0  0  0  0  0  0
   14.8391   -1.0961    0.0000 H   0  0  0  0  0  0  0  0  0  0  0  0
   11.0901   -3.7300    0.0000 H   0  0  0  0  0  0  0  0  0  0  0  0
   12.3424   -3.3513    0.0000 H   0  0  0  0  0  0  0  0  0  0  0  0
    9.3858   -4.0600    0.0000 H   0  0  0  0  0  0  0  0  0  0  0  0
   10.5250   -3.9967    0.0000 H   0  0  0  0  0  0  0  0  0  0  0  0
    7.3501   -3.6851    0.0000 H   0  0  0  0  0  0  0  0  0  0  0  0
    8.7774   -4.0400    0.0000 H   0  0  0  0  0  0  0  0  0  0  0  0
    6.2662   -3.4339    0.0000 H   0  0  0  0  0  0  0  0  0  0  0  0
   14.7329   -3.1893    0.0000 H   0  0  0  0  0  0  0  0  0  0  0  0
   15.5060   -1.5810    0.0000 H   0  0  0  0  0  0  0  0  0  0  0  0
   14.5501   -0.4549    0.0000 H   0  0  0  0  0  0  0  0  0  0  0  0
   15.4799   -2.7142    0.0000 H   0  0  0  0  0  0  0  0  0  0  0  0
   12.9080   -4.9247    0.0000 H   0  0  0  0  0  0  0  0  0  0  0  0
   13.3058   -7.7156    0.0000 H   0  0  0  0  0  0  0  0  0  0  0  0
   12.7063   -5.8827    0.0000 H   0  0  0  0  0  0  0  0  0  0  0  0
   14.9058   -8.9113    0.0000 H   0  0  0  0  0  0  0  0  0  0  0  0
   16.6067   -8.0027    0.0000 H   0  0  0  0  0  0  0  0  0  0  0  0
   16.5125   -6.6911    0.0000 H   0  0  0  0  0  0  0  0  0  0  0  0
   14.9521   -8.0811    0.0000 H   0  0  0  0  0  0  0  0  0  0  0  0
   17.5304   -6.0831    0.0000 H   0  0  0  0  0  0  0  0  0  0  0  0
   20.2936   -8.1863    0.0000 H   0  0  0  0  0  0  0  0  0  0  0  0
   18.9571   -9.1260    0.0000 H   0  0  0  0  0  0  0  0  0  0  0  0
   20.0032   -4.8856    0.0000 H   0  0  0  0  0  0  0  0  0  0  0  0
   18.3808   -5.6287    0.0000 H   0  0  0  0  0  0  0  0  0  0  0  0
   22.5852   -6.9621    0.0000 H   0  0  0  0  0  0  0  0  0  0  0  0
   21.0655   -7.8974    0.0000 H   0  0  0  0  0  0  0  0  0  0  0  0
   21.2790   -3.8062    0.0000 H   0  0  0  0  0  0  0  0  0  0  0  0
   25.7766   -3.9546    0.0000 H   0  0  0  0  0  0  0  0  0  0  0  0
   23.5706   -2.5821    0.0000 H   0  0  0  0  0  0  0  0  0  0  0  0
   25.6909   -6.5513    0.0000 H   0  0  0  0  0  0  0  0  0  0  0  0
   23.3993   -7.7754    0.0000 H   0  0  0  0  0  0  0  0  0  0  0  0
   20.2903   -8.8468    0.0000 H   0  0  0  0  0  0  0  0  0  0  0  0
   17.7185  -11.0574    0.0000 H   0  0  0  0  0  0  0  0  0  0  0  0
   18.1162  -13.8482    0.0000 H   0  0  0  0  0  0  0  0  0  0  0  0
   17.5168  -12.0154    0.0000 H   0  0  0  0  0  0  0  0  0  0  0  0
   21.4171  -14.1354    0.0000 H   0  0  0  0  0  0  0  0  0  0  0  0
   21.2216  -12.6712    0.0000 H   0  0  0  0  0  0  0  0  0  0  0  0
  1  2  1  0
  2  3  1  0
  3  4  1  0
  4  5  2  0
  4  6  1  0
  6  7  1  0
  7  8  1  0
  8  9  1  0
  9 10  1  0
 10 11  1  0
 11 12  1  0
  7 13  1  0
 13 14  2  0
 13 15  1  0
 15 16  1  0
 16 17  1  0
 17 18  1  0
 17 19  1  0
 16 20  1  0
 20 21  2  0
 20 22  1  0
 22 23  1  0
 23 24  1  0
 24 25  1  0
 25 26  2  0
 26 27  1  0
 27 28  2  0
 28 29  1  0
 28 30  1  0
 30 31  2  0
 23 32  1  0
 32 33  2  0
 32 34  1  0
 34 35  1  0
 35 36  1  0
 36 37  1  0
 37 38  1  0
 38 39  1  0
 39 40  1  0
 40 41  2  3
 40 42  1  0
 35 43  1  0
 43 44  2  0
 43 45  1  0
 45 46  1  0
 46 47  1  0
 47 48  2  0
 47 49  1  0
 49 50  1  0
 50 51  1  0
 50 52  1  0
 52 53  2  0
 52 54  1  0
 54 55  1  0
 55 56  1  0
 56 57  1  0
 57 58  2  0
 58 59  1  0
 59 60  2  0
 60 61  1  0
 61 62  2  0
 55 63  1  0
 63 64  2  0
 63 65  1  0
 65 66  1  0
 66 67  1  0
 67 68  1  0
 68 69  1  0
 69 70  1  0
 69 71  2  0
 66 72  1  0
 72 73  2  0
 72 74  1  0
 75 74  1  6
 75 76  1  0
 76 77  1  0
 77 78  1  0
 78 79  1  0
 75 80  1  0
 75 81  1  0
 81 82  2  0
 81 83  1  0
 83 84  1  0
 84 85  1  0
 85 86  1  0
 86 87  1  0
 86 88  1  0
 84 89  1  0
 89 90  2  0
 89 91  1  0
 91 92  1  0
 92 93  1  0
 93 94  1  0
 94 95  2  0
 95 96  1  0
 96 97  2  0
 97 98  1  0
 98 99  2  0
 92100  1  0
100101  2  0
100102  1  0
102103  1  0
103104  1  0
104105  1  0
105106  1  0
106107  1  0
106108  2  0
103109  1  0
109110  2  0
109111  1  0
111112  1  0
112113  1  0
113114  1  0
114115  1  0
115116  1  0
112117  1  0
112118  1  6
118119  2  0
118120  1  0
120121  1  0
121122  1  0
122123  1  0
121124  1  0
124125  2  0
124126  1  0
126127  1  0
127128  1  0
128129  1  0
129130  1  0
130131  1  0
131132  1  0
132133  2  3
132134  1  0
127135  1  0
135136  2  0
135137  1  0
137138  1  0
138139  1  0
139140  1  0
140141  1  0
141142  2  0
141143  1  0
138144  1  0
144145  2  0
144146  1  0
 31 25  1  0
 62 57  1  0
 99 94  1  0
 79116  2  0
  1147  1  0
  1148  1  0
  2149  1  0
  2150  1  0
  3151  1  0
  3152  1  0
  6153  1  0
  7154  1  6
  8155  1  0
  8156  1  0
  9157  1  0
  9158  1  0
 10159  1  0
 10160  1  0
 11161  1  0
 11162  1  0
 12163  1  0
 12164  1  0
 12165  1  0
 15166  1  0
 16167  1  1
 17168  1  6
 18169  1  0
 19170  1  0
 19171  1  0
 19172  1  0
 22173  1  0
 23174  1  1
 24175  1  0
 24176  1  0
 26177  1  0
 27178  1  0
 29179  1  0
 30180  1  0
 31181  1  0
 34182  1  0
 35183  1  6
 36184  1  0
 36185  1  0
 37186  1  0
 37187  1  0
 38188  1  0
 38189  1  0
 39190  1  0
 41191  1  0
 41192  1  0
 42193  1  0
 42194  1  0
 45195  1  0
 46196  1  0
 46197  1  0
 49198  1  0
 50199  1  1
 51200  1  0
 51201  1  0
 51202  1  0
 54203  1  0
 55204  1  1
 56205  1  0
 56206  1  0
 58207  1  0
 59208  1  0
 60209  1  0
 61210  1  0
 62211  1  0
 65212  1  0
 66213  1  1
 67214  1  0
 67215  1  0
 68216  1  0
 68217  1  0
 70218  1  0
 70219  1  0
 74220  1  0
 76221  1  0
 76222  1  0
 77223  1  0
 77224  1  0
 78225  1  0
 78226  1  0
 79227  1  0
 80228  1  0
 80229  1  0
 80230  1  0
 83231  1  0
 84232  1  1
 85233  1  0
 85234  1  0
 86235  1  0
 87236  1  0
 87237  1  0
 87238  1  0
 88239  1  0
 88240  1  0
 88241  1  0
 91242  1  0
 92243  1  1
 93244  1  0
 93245  1  0
 95246  1  0
 96247  1  0
 97248  1  0
 98249  1  0
 99250  1  0
102251  1  0
103252  1  1
104253  1  0
104254  1  0
105255  1  0
105256  1  0
107257  1  0
107258  1  0
111259  1  0
113260  1  0
113261  1  0
114262  1  0
114263  1  0
115264  1  0
115265  1  0
116266  1  0
117267  1  0
117268  1  0
117269  1  0
120270  1  0
121271  1  6
122272  1  0
122273  1  0
123274  1  0
123275  1  0
123276  1  0
126277  1  0
127278  1  1
128279  1  0
128280  1  0
129281  1  0
129282  1  0
130283  1  0
130284  1  0
131285  1  0
133286  1  0
133287  1  0
134288  1  0
134289  1  0
137290  1  0
138291  1  6
139292  1  0
139293  1  0
140294  1  0
140295  1  0
M  CHG  5  12   1  41   1 133   1 143  -1 146  -1
M  END
