
     RDKit          2D

313319  0  0  0  0  0  0  0  0999 V2000
  -25.9698   -3.5627    0.0000 C   0  0  0  0  0  0  0  0  0  0  0  0
  -26.7233   -4.8597    0.0000 N   0  0  0  0  0  0  0  0  0  0  0  0
  -28.2233   -4.8557    0.0000 C   0  0  0  0  0  0  0  0  0  0  0  0
  -28.9698   -3.5546    0.0000 C   0  0  0  0  0  0  0  0  0  0  0  0
  -30.4698   -3.5506    0.0000 C   0  0  0  0  0  0  0  0  0  0  0  0
  -31.2233   -4.8476    0.0000 C   0  0  0  0  0  0  0  0  0  0  0  0
  -30.4768   -6.1487    0.0000 C   0  0  0  0  0  0  0  0  0  0  0  0
  -28.9768   -6.1527    0.0000 C   0  0  0  0  0  0  0  0  0  0  0  0
  -31.4835   -7.2607    0.0000 C   0  0  0  0  0  0  0  0  0  0  0  0
  -32.8521   -6.6469    0.0000 O   0  0  0  0  0  0  0  0  0  0  0  0
  -32.6913   -5.1555    0.0000 C   0  0  0  0  0  0  0  0  0  0  0  0
  -33.8033   -4.1488    0.0000 O   0  0  0  0  0  0  0  0  0  0  0  0
  -32.6009   -8.2614    0.0000 C   0  0  0  0  0  0  0  0  0  0  0  0
  -32.2930   -9.7294    0.0000 C   0  0  0  0  0  0  0  0  0  0  0  0
  -33.4104  -10.7301    0.0000 C   0  0  0  0  0  0  0  0  0  0  0  0
  -34.8357  -10.2628    0.0000 C   0  0  0  0  0  0  0  0  0  0  0  0
  -35.1436   -8.7947    0.0000 C   0  0  0  0  0  0  0  0  0  0  0  0
  -34.0262   -7.7940    0.0000 C   0  0  0  0  0  0  0  0  0  0  0  0
  -35.9531  -11.2635    0.0000 O   0  0  0  0  0  0  0  0  0  0  0  0
  -30.8676  -10.1968    0.0000 O   0  0  0  0  0  0  0  0  0  0  0  0
  -29.7502   -9.1961    0.0000 C   0  0  0  0  0  0  0  0  0  0  0  0
  -30.0581   -7.7280    0.0000 C   0  0  0  0  0  0  0  0  0  0  0  0
  -28.7970   -7.4124    0.0000 C   0  0  0  0  0  0  0  0  0  0  0  0
  -28.0368   -7.6617    0.0000 C   0  0  0  0  0  0  0  0  0  0  0  0
  -27.8726   -8.4447    0.0000 C   0  0  0  0  0  0  0  0  0  0  0  0
  -28.4686   -8.9784    0.0000 C   0  0  0  0  0  0  0  0  0  0  0  0
  -25.7821   -9.1301    0.0000 O   0  0  0  0  0  0  0  0  0  0  0  0
  -26.7163   -2.2616    0.0000 S   0  0  0  0  0  0  0  0  0  0  0  0
  -24.4698   -3.5667    0.0000 N   0  0  0  0  0  0  0  0  0  0  0  0
  -23.7163   -2.2697    0.0000 C   0  0  0  0  0  0  0  0  0  0  0  0
  -22.2163   -2.2737    0.0000 C   0  0  0  0  0  0  0  0  0  0  0  0
  -21.4628   -0.9767    0.0000 C   0  0  0  0  0  0  0  0  0  0  0  0
  -22.2093    0.3243    0.0000 O   0  0  0  0  0  0  0  0  0  0  0  0
  -19.9628   -0.9808    0.0000 N   0  0  0  0  0  0  0  0  0  0  0  0
  -19.2094    0.3163    0.0000 C   0  0  0  0  0  0  0  0  0  0  0  0
  -18.9449    1.7928    0.0000 C   0  0  0  0  0  0  0  0  0  0  0  0
  -17.5340    2.3020    0.0000 C   0  0  0  0  0  0  0  0  0  0  0  0
  -17.2696    3.7785    0.0000 C   0  0  0  0  0  0  0  0  0  0  0  0
  -15.8586    4.2877    0.0000 N   0  0  0  0  0  0  0  0  0  0  0  0
  -15.5942    5.7642    0.0000 C   0  0  0  0  0  0  0  0  0  0  0  0
  -14.1833    6.2735    0.0000 N   0  0  0  0  0  0  0  0  0  0  0  0
  -16.7407    6.7315    0.0000 N   0  0  0  0  0  0  0  0  0  0  0  0
  -17.7094    0.3122    0.0000 C   0  0  0  0  0  0  0  0  0  0  0  0
  -16.9629   -0.9888    0.0000 O   0  0  0  0  0  0  0  0  0  0  0  0
  -16.9559    1.6092    0.0000 N   0  0  0  0  0  0  0  0  0  0  0  0
  -15.4559    1.6052    0.0000 C   0  0  0  0  0  0  0  0  0  0  0  0
  -14.0477    1.0884    0.0000 C   0  0  0  0  0  0  0  0  0  0  0  0
  -13.7912   -0.3895    0.0000 C   0  0  0  0  0  0  0  0  0  0  0  0
  -12.3831   -0.9063    0.0000 C   0  0  0  0  0  0  0  0  0  0  0  0
  -12.1266   -2.3842    0.0000 N   0  0  0  0  0  0  0  0  0  0  0  0
  -10.7184   -2.9011    0.0000 C   0  0  0  0  0  0  0  0  0  0  0  0
  -10.4619   -4.3790    0.0000 N   0  0  0  0  0  0  0  0  0  0  0  0
   -9.5668   -1.9400    0.0000 N   0  0  0  0  0  0  0  0  0  0  0  0
  -14.7024    2.9022    0.0000 C   0  0  0  0  0  0  0  0  0  0  0  0
  -15.0009    3.9542    0.0000 O   0  0  0  0  0  0  0  0  0  0  0  0
  -13.2024    2.8982    0.0000 N   0  0  0  0  0  0  0  0  0  0  0  0
  -12.4489    4.1952    0.0000 C   0  0  0  0  0  0  0  0  0  0  0  0
  -10.9489    4.1912    0.0000 C   0  0  0  0  0  0  0  0  0  0  0  0
  -10.2024    2.8901    0.0000 O   0  0  0  0  0  0  0  0  0  0  0  0
  -10.1954    5.4882    0.0000 N   0  0  0  0  0  0  0  0  0  0  0  0
   -8.6954    5.4842    0.0000 C   0  0  0  0  0  0  0  0  0  0  0  0
   -7.2873    4.9673    0.0000 C   0  0  0  0  0  0  0  0  0  0  0  0
   -7.0308    3.4894    0.0000 O   0  0  0  0  0  0  0  0  0  0  0  0
   -7.9419    6.7812    0.0000 C   0  0  0  0  0  0  0  0  0  0  0  0
   -8.6884    8.0822    0.0000 O   0  0  0  0  0  0  0  0  0  0  0  0
   -6.4419    6.7771    0.0000 N   0  0  0  0  0  0  0  0  0  0  0  0
   -5.6884    8.0742    0.0000 C   0  0  0  0  0  0  0  0  0  0  0  0
   -5.4240    9.5507    0.0000 C   0  0  0  0  0  0  0  0  0  0  0  0
   -4.0131   10.0599    0.0000 C   0  0  0  0  0  0  0  0  0  0  0  0
   -3.7486   11.5364    0.0000 C   0  0  0  0  0  0  0  0  0  0  0  0
   -2.3377   12.0456    0.0000 N   0  0  0  0  0  0  0  0  0  0  0  0
   -2.0733   13.5222    0.0000 C   0  0  0  0  0  0  0  0  0  0  0  0
   -0.6624   14.0314    0.0000 N   0  0  0  0  0  0  0  0  0  0  0  0
   -3.2198   14.4894    0.0000 N   0  0  0  0  0  0  0  0  0  0  0  0
   -4.1884    8.0701    0.0000 C   0  0  0  0  0  0  0  0  0  0  0  0
   -3.4419    6.7691    0.0000 O   0  0  0  0  0  0  0  0  0  0  0  0
   -3.4350    9.3671    0.0000 N   0  0  0  0  0  0  0  0  0  0  0  0
   -4.0414   10.7391    0.0000 C   0  0  0  0  0  0  0  0  0  0  0  0
   -2.9240   11.7398    0.0000 C   0  0  0  0  0  0  0  0  0  0  0  0
   -1.6269   10.9863    0.0000 C   0  0  0  0  0  0  0  0  0  0  0  0
   -1.9428    9.5199    0.0000 C   0  0  0  0  0  0  0  0  0  0  0  0
   -0.4514    9.3591    0.0000 C   0  0  0  0  0  0  0  0  0  0  0  0
    0.5746   10.4534    0.0000 O   0  0  0  0  0  0  0  0  0  0  0  0
    0.1550    7.9872    0.0000 N   0  0  0  0  0  0  0  0  0  0  0  0
    1.6464    7.8264    0.0000 C   0  0  0  0  0  0  0  0  0  0  0  0
    3.1028    8.1853    0.0000 C   0  0  0  0  0  0  0  0  0  0  0  0
    4.4606    7.5479    0.0000 O   0  0  0  0  0  0  0  0  0  0  0  0
    2.2528    6.4544    0.0000 C   0  0  0  0  0  0  0  0  0  0  0  0
    1.3679    5.2433    0.0000 O   0  0  0  0  0  0  0  0  0  0  0  0
    3.7441    6.2936    0.0000 N   0  0  0  0  0  0  0  0  0  0  0  0
    4.3506    4.9216    0.0000 C   0  0  0  0  0  0  0  0  0  0  0  0
    5.8419    4.7608    0.0000 C   0  0  0  0  0  0  0  0  0  0  0  0
    6.7269    5.9720    0.0000 O   0  0  0  0  0  0  0  0  0  0  0  0
    6.4483    3.3889    0.0000 N   0  0  0  0  0  0  0  0  0  0  0  0
    7.9397    3.2281    0.0000 C   0  0  0  0  0  0  0  0  0  0  0  0
    9.3961    3.5871    0.0000 C   0  0  0  0  0  0  0  0  0  0  0  0
    8.5461    1.8561    0.0000 C   0  0  0  0  0  0  0  0  0  0  0  0
    7.5201    0.7619    0.0000 O   0  0  0  0  0  0  0  0  0  0  0  0
   10.0375    1.6953    0.0000 N   0  0  0  0  0  0  0  0  0  0  0  0
   10.6439    0.3234    0.0000 C   0  0  0  0  0  0  0  0  0  0  0  0
   10.0165   -1.0391    0.0000 C   0  0  0  0  0  0  0  0  0  0  0  0
    9.8185   -2.5260    0.0000 C   0  0  0  0  0  0  0  0  0  0  0  0
   10.0677   -4.0052    0.0000 C   0  0  0  0  0  0  0  0  0  0  0  0
   10.7417   -5.3452    0.0000 C   0  0  0  0  0  0  0  0  0  0  0  0
    9.1565    0.5176    0.0000 C   0  0  0  0  0  0  0  0  0  0  0  0
   11.6450    1.4404    0.0000 C   0  0  0  0  0  0  0  0  0  0  0  0
   10.9979    2.7936    0.0000 O   0  0  0  0  0  0  0  0  0  0  0  0
   12.9309    2.2127    0.0000 N   0  0  0  0  0  0  0  0  0  0  0  0
   14.3873    2.5717    0.0000 C   0  0  0  0  0  0  0  0  0  0  0  0
   15.0819    3.9012    0.0000 C   0  0  0  0  0  0  0  0  0  0  0  0
   14.2778    5.1674    0.0000 C   0  0  0  0  0  0  0  0  0  0  0  0
   14.9723    6.4970    0.0000 C   0  0  0  0  0  0  0  0  0  0  0  0
   14.1682    7.7632    0.0000 N   0  0  0  0  0  0  0  0  0  0  0  0
   14.8627    9.0927    0.0000 C   0  0  0  0  0  0  0  0  0  0  0  0
   14.0586   10.3590    0.0000 N   0  0  0  0  0  0  0  0  0  0  0  0
   16.3614    9.1560    0.0000 N   0  0  0  0  0  0  0  0  0  0  0  0
   15.8849    2.4854    0.0000 C   0  0  0  0  0  0  0  0  0  0  0  0
   16.1933    3.9533    0.0000 O   0  0  0  0  0  0  0  0  0  0  0  0
   17.2904    1.9616    0.0000 N   0  0  0  0  0  0  0  0  0  0  0  0
   18.4791    1.0467    0.0000 C   0  0  0  0  0  0  0  0  0  0  0  0
   19.9516    1.3326    0.0000 C   0  0  0  0  0  0  0  0  0  0  0  0
   20.4402    2.7508    0.0000 C   0  0  0  0  0  0  0  0  0  0  0  0
   21.9127    3.0368    0.0000 C   0  0  0  0  0  0  0  0  0  0  0  0
   22.4014    4.4549    0.0000 N   0  0  0  0  0  0  0  0  0  0  0  0
   23.8739    4.7409    0.0000 C   0  0  0  0  0  0  0  0  0  0  0  0
   24.3625    6.1590    0.0000 N   0  0  0  0  0  0  0  0  0  0  0  0
   24.8577    3.6086    0.0000 N   0  0  0  0  0  0  0  0  0  0  0  0
   19.3454   -0.1779    0.0000 C   0  0  0  0  0  0  0  0  0  0  0  0
   20.6854    0.4962    0.0000 O   0  0  0  0  0  0  0  0  0  0  0  0
   19.8122   -1.6034    0.0000 N   0  0  0  0  0  0  0  0  0  0  0  0
   19.8381   -3.1032    0.0000 C   0  0  0  0  0  0  0  0  0  0  0  0
   20.9797   -4.0761    0.0000 C   0  0  0  0  0  0  0  0  0  0  0  0
   22.3931   -3.5739    0.0000 C   0  0  0  0  0  0  0  0  0  0  0  0
   23.5348   -4.5469    0.0000 C   0  0  0  0  0  0  0  0  0  0  0  0
   24.9482   -4.0447    0.0000 N   0  0  0  0  0  0  0  0  0  0  0  0
   26.0898   -5.0177    0.0000 C   0  0  0  0  0  0  0  0  0  0  0  0
   27.5033   -4.5155    0.0000 N   0  0  0  0  0  0  0  0  0  0  0  0
   25.8180   -6.4929    0.0000 N   0  0  0  0  0  0  0  0  0  0  0  0
   19.4207   -4.5439    0.0000 C   0  0  0  0  0  0  0  0  0  0  0  0
   20.7832   -5.1713    0.0000 O   0  0  0  0  0  0  0  0  0  0  0  0
   18.5973   -5.7977    0.0000 N   0  0  0  0  0  0  0  0  0  0  0  0
   17.4408   -6.7530    0.0000 C   0  0  0  0  0  0  0  0  0  0  0  0
   16.0542   -7.3251    0.0000 C   0  0  0  0  0  0  0  0  0  0  0  0
   14.5605   -7.4629    0.0000 C   0  0  0  0  0  0  0  0  0  0  0  0
   13.0926   -7.1545    0.0000 C   0  0  0  0  0  0  0  0  0  0  0  0
   11.7808   -6.4270    0.0000 C   0  0  0  0  0  0  0  0  0  0  0  0
   18.7872   -7.4142    0.0000 C   0  0  0  0  0  0  0  0  0  0  0  0
   17.3919   -8.2522    0.0000 C   0  0  0  0  0  0  0  0  0  0  0  0
   16.2796   -9.2585    0.0000 O   0  0  0  0  0  0  0  0  0  0  0  0
   18.6658   -9.0442    0.0000 N   0  0  0  0  0  0  0  0  0  0  0  0
   18.6169  -10.5434    0.0000 C   0  0  0  0  0  0  0  0  0  0  0  0
   18.0582  -11.9355    0.0000 C   0  0  0  0  0  0  0  0  0  0  0  0
   16.5733  -12.1476    0.0000 C   0  0  0  0  0  0  0  0  0  0  0  0
   16.0146  -13.5397    0.0000 C   0  0  0  0  0  0  0  0  0  0  0  0
   14.5296  -13.7519    0.0000 N   0  0  0  0  0  0  0  0  0  0  0  0
   13.9709  -15.1439    0.0000 C   0  0  0  0  0  0  0  0  0  0  0  0
   12.4860  -15.3561    0.0000 N   0  0  0  0  0  0  0  0  0  0  0  0
   14.8971  -16.3238    0.0000 N   0  0  0  0  0  0  0  0  0  0  0  0
   19.8908  -11.3353    0.0000 C   0  0  0  0  0  0  0  0  0  0  0  0
   20.0250  -12.8293    0.0000 O   0  0  0  0  0  0  0  0  0  0  0  0
   21.2136  -10.6281    0.0000 O   0  0  0  0  0  0  0  0  0  0  0  0
  -25.8238   -6.0601    0.0000 H   0  0  0  0  0  0  0  0  0  0  0  0
  -28.2163   -2.2576    0.0000 H   0  0  0  0  0  0  0  0  0  0  0  0
  -31.2163   -2.2495    0.0000 H   0  0  0  0  0  0  0  0  0  0  0  0
  -27.9376   -7.2344    0.0000 H   0  0  0  0  0  0  0  0  0  0  0  0
  -33.1024  -12.1982    0.0000 H   0  0  0  0  0  0  0  0  0  0  0  0
  -36.5690   -8.3274    0.0000 H   0  0  0  0  0  0  0  0  0  0  0  0
  -34.3341   -6.3260    0.0000 H   0  0  0  0  0  0  0  0  0  0  0  0
  -37.3784  -10.7961    0.0000 H   0  0  0  0  0  0  0  0  0  0  0  0
  -29.2486   -5.2593    0.0000 H   0  0  0  0  0  0  0  0  0  0  0  0
  -26.2843   -6.3377    0.0000 H   0  0  0  0  0  0  0  0  0  0  0  0
  -28.0170  -11.1315    0.0000 H   0  0  0  0  0  0  0  0  0  0  0  0
  -25.4742  -10.5982    0.0000 H   0  0  0  0  0  0  0  0  0  0  0  0
  -23.7233   -4.8678    0.0000 H   0  0  0  0  0  0  0  0  0  0  0  0
  -23.4519   -0.7932    0.0000 H   0  0  0  0  0  0  0  0  0  0  0  0
  -25.1245   -1.7529    0.0000 H   0  0  0  0  0  0  0  0  0  0  0  0
  -20.8082   -2.7906    0.0000 H   0  0  0  0  0  0  0  0  0  0  0  0
  -22.4808   -3.7503    0.0000 H   0  0  0  0  0  0  0  0  0  0  0  0
  -19.2163   -2.2818    0.0000 H   0  0  0  0  0  0  0  0  0  0  0  0
  -20.6175    0.8331    0.0000 H   0  0  0  0  0  0  0  0  0  0  0  0
  -19.3796    3.2284    0.0000 H   0  0  0  0  0  0  0  0  0  0  0  0
  -20.4449    1.7968    0.0000 H   0  0  0  0  0  0  0  0  0  0  0  0
  -16.0340    2.2980    0.0000 H   0  0  0  0  0  0  0  0  0  0  0  0
  -16.6136    1.1176    0.0000 H   0  0  0  0  0  0  0  0  0  0  0  0
  -17.5261    5.2564    0.0000 H   0  0  0  0  0  0  0  0  0  0  0  0
  -18.7579    3.9654    0.0000 H   0  0  0  0  0  0  0  0  0  0  0  0
  -14.5122    3.6266    0.0000 H   0  0  0  0  0  0  0  0  0  0  0  0
  -13.9188    7.7500    0.0000 H   0  0  0  0  0  0  0  0  0  0  0  0
  -16.4762    8.2080    0.0000 H   0  0  0  0  0  0  0  0  0  0  0  0
  -18.1516    6.2223    0.0000 H   0  0  0  0  0  0  0  0  0  0  0  0
  -17.3654    3.0523    0.0000 H   0  0  0  0  0  0  0  0  0  0  0  0
  -15.8983    0.1719    0.0000 H   0  0  0  0  0  0  0  0  0  0  0  0
  -12.5477    1.0844    0.0000 H   0  0  0  0  0  0  0  0  0  0  0  0
  -13.4339    2.4570    0.0000 H   0  0  0  0  0  0  0  0  0  0  0  0
  -14.0557   -1.8660    0.0000 H   0  0  0  0  0  0  0  0  0  0  0  0
  -15.2805   -0.5684    0.0000 H   0  0  0  0  0  0  0  0  0  0  0  0
  -10.8831   -0.9104    0.0000 H   0  0  0  0  0  0  0  0  0  0  0  0
  -11.9406    0.5269    0.0000 H   0  0  0  0  0  0  0  0  0  0  0  0
  -13.2782   -3.3453    0.0000 H   0  0  0  0  0  0  0  0  0  0  0  0
   -9.0538   -4.8958    0.0000 H   0  0  0  0  0  0  0  0  0  0  0  0
   -8.1586   -2.4568    0.0000 H   0  0  0  0  0  0  0  0  0  0  0  0
   -9.8233   -0.4621    0.0000 H   0  0  0  0  0  0  0  0  0  0  0  0
  -12.3029    1.6978    0.0000 H   0  0  0  0  0  0  0  0  0  0  0  0
  -12.1845    5.6717    0.0000 H   0  0  0  0  0  0  0  0  0  0  0  0
  -13.8571    4.7120    0.0000 H   0  0  0  0  0  0  0  0  0  0  0  0
  -10.9419    6.7892    0.0000 H   0  0  0  0  0  0  0  0  0  0  0  0
   -8.9599    4.0076    0.0000 H   0  0  0  0  0  0  0  0  0  0  0  0
   -5.7989    4.7805    0.0000 H   0  0  0  0  0  0  0  0  0  0  0  0
   -6.6734    6.3360    0.0000 H   0  0  0  0  0  0  0  0  0  0  0  0
   -5.6226    2.9726    0.0000 H   0  0  0  0  0  0  0  0  0  0  0  0
   -5.5424    5.5768    0.0000 H   0  0  0  0  0  0  0  0  0  0  0  0
   -7.0966    8.5910    0.0000 H   0  0  0  0  0  0  0  0  0  0  0  0
   -5.8587   10.9863    0.0000 H   0  0  0  0  0  0  0  0  0  0  0  0
   -6.9240    9.5547    0.0000 H   0  0  0  0  0  0  0  0  0  0  0  0
   -2.5567   10.4189    0.0000 H   0  0  0  0  0  0  0  0  0  0  0  0
   -3.0926    8.8755    0.0000 H   0  0  0  0  0  0  0  0  0  0  0  0
   -4.1834   12.9720    0.0000 H   0  0  0  0  0  0  0  0  0  0  0  0
   -5.2031   11.9033    0.0000 H   0  0  0  0  0  0  0  0  0  0  0  0
   -0.9913   11.3845    0.0000 H   0  0  0  0  0  0  0  0  0  0  0  0
   -0.3979   15.5079    0.0000 H   0  0  0  0  0  0  0  0  0  0  0  0
   -2.9553   15.9659    0.0000 H   0  0  0  0  0  0  0  0  0  0  0  0
   -4.6307   13.9802    0.0000 H   0  0  0  0  0  0  0  0  0  0  0  0
   -5.4844   10.3296    0.0000 H   0  0  0  0  0  0  0  0  0  0  0  0
   -5.0614   11.8388    0.0000 H   0  0  0  0  0  0  0  0  0  0  0  0
   -3.9050   12.8745    0.0000 H   0  0  0  0  0  0  0  0  0  0  0  0
   -2.3584   13.1291    0.0000 H   0  0  0  0  0  0  0  0  0  0  0  0
   -1.0132   12.3550    0.0000 H   0  0  0  0  0  0  0  0  0  0  0  0
   -0.1553   10.6962    0.0000 H   0  0  0  0  0  0  0  0  0  0  0  0
   -1.9468    8.0199    0.0000 H   0  0  0  0  0  0  0  0  0  0  0  0
   -0.7299    6.7760    0.0000 H   0  0  0  0  0  0  0  0  0  0  0  0
    1.5458    9.3230    0.0000 H   0  0  0  0  0  0  0  0  0  0  0  0
    4.3486    9.0208    0.0000 H   0  0  0  0  0  0  0  0  0  0  0  0
    2.4964    9.5573    0.0000 H   0  0  0  0  0  0  0  0  0  0  0  0
    5.5983    7.4625    0.0000 H   0  0  0  0  0  0  0  0  0  0  0  0
    4.7701    7.3879    0.0000 H   0  0  0  0  0  0  0  0  0  0  0  0
    4.4512    3.4250    0.0000 H   0  0  0  0  0  0  0  0  0  0  0  0
    2.8941    4.5627    0.0000 H   0  0  0  0  0  0  0  0  0  0  0  0
    5.5634    2.1777    0.0000 H   0  0  0  0  0  0  0  0  0  0  0  0
    7.8391    4.7247    0.0000 H   0  0  0  0  0  0  0  0  0  0  0  0
   10.8215    3.1199    0.0000 H   0  0  0  0  0  0  0  0  0  0  0  0
   10.6419    4.4225    0.0000 H   0  0  0  0  0  0  0  0  0  0  0  0
    8.7897    4.9590    0.0000 H   0  0  0  0  0  0  0  0  0  0  0  0
   10.9224    2.9065    0.0000 H   0  0  0  0  0  0  0  0  0  0  0  0
    8.9019   -0.0352    0.0000 H   0  0  0  0  0  0  0  0  0  0  0  0
    8.5798   -1.4702    0.0000 H   0  0  0  0  0  0  0  0  0  0  0  0
    8.3909   -2.0658    0.0000 H   0  0  0  0  0  0  0  0  0  0  0  0
    8.4802   -3.2033    0.0000 H   0  0  0  0  0  0  0  0  0  0  0  0
    8.5813   -3.8036    0.0000 H   0  0  0  0  0  0  0  0  0  0  0  0
    9.1235   -5.1707    0.0000 H   0  0  0  0  0  0  0  0  0  0  0  0
    9.5171   -6.2114    0.0000 H   0  0  0  0  0  0  0  0  0  0  0  0
    8.0498   -0.7276    0.0000 H   0  0  0  0  0  0  0  0  0  0  0  0
    7.7074    0.6833    0.0000 H   0  0  0  0  0  0  0  0  0  0  0  0
    9.0953    1.8344    0.0000 H   0  0  0  0  0  0  0  0  0  0  0  0
   12.3589    3.5994    0.0000 H   0  0  0  0  0  0  0  0  0  0  0  0
   13.3242    3.6299    0.0000 H   0  0  0  0  0  0  0  0  0  0  0  0
   16.3043    4.7704    0.0000 H   0  0  0  0  0  0  0  0  0  0  0  0
   16.4566    3.3012    0.0000 H   0  0  0  0  0  0  0  0  0  0  0  0
   13.0890    6.0823    0.0000 H   0  0  0  0  0  0  0  0  0  0  0  0
   13.0553    4.2982    0.0000 H   0  0  0  0  0  0  0  0  0  0  0  0
   16.0797    7.5087    0.0000 H   0  0  0  0  0  0  0  0  0  0  0  0
   16.2637    5.7338    0.0000 H   0  0  0  0  0  0  0  0  0  0  0  0
   12.6695    7.6999    0.0000 H   0  0  0  0  0  0  0  0  0  0  0  0
   14.7531   11.6885    0.0000 H   0  0  0  0  0  0  0  0  0  0  0  0
   17.0559   10.4855    0.0000 H   0  0  0  0  0  0  0  0  0  0  0  0
   17.1655    7.8897    0.0000 H   0  0  0  0  0  0  0  0  0  0  0  0
   18.0179    3.2734    0.0000 H   0  0  0  0  0  0  0  0  0  0  0  0
   18.6436    2.5377    0.0000 H   0  0  0  0  0  0  0  0  0  0  0  0
   21.3934    0.9189    0.0000 H   0  0  0  0  0  0  0  0  0  0  0  0
   20.3396   -0.1163    0.0000 H   0  0  0  0  0  0  0  0  0  0  0  0
   20.4144    4.2506    0.0000 H   0  0  0  0  0  0  0  0  0  0  0  0
   18.9984    3.1646    0.0000 H   0  0  0  0  0  0  0  0  0  0  0  0
   23.3942    2.8018    0.0000 H   0  0  0  0  0  0  0  0  0  0  0  0
   22.1213    1.5513    0.0000 H   0  0  0  0  0  0  0  0  0  0  0  0
   21.4175    5.5872    0.0000 H   0  0  0  0  0  0  0  0  0  0  0  0
   25.8350    6.4450    0.0000 H   0  0  0  0  0  0  0  0  0  0  0  0
   26.3302    3.8945    0.0000 H   0  0  0  0  0  0  0  0  0  0  0  0
   24.3691    2.1904    0.0000 H   0  0  0  0  0  0  0  0  0  0  0  0
   21.2913   -1.3543    0.0000 H   0  0  0  0  0  0  0  0  0  0  0  0
   21.1063   -2.3022    0.0000 H   0  0  0  0  0  0  0  0  0  0  0  0
   21.5551   -5.4614    0.0000 H   0  0  0  0  0  0  0  0  0  0  0  0
   20.0888   -5.2829    0.0000 H   0  0  0  0  0  0  0  0  0  0  0  0
   23.5496   -2.6186    0.0000 H   0  0  0  0  0  0  0  0  0  0  0  0
   21.8177   -2.1887    0.0000 H   0  0  0  0  0  0  0  0  0  0  0  0
   24.2748   -5.8517    0.0000 H   0  0  0  0  0  0  0  0  0  0  0  0
   22.5034   -5.6361    0.0000 H   0  0  0  0  0  0  0  0  0  0  0  0
   25.2200   -2.5696    0.0000 H   0  0  0  0  0  0  0  0  0  0  0  0
   28.6449   -5.4885    0.0000 H   0  0  0  0  0  0  0  0  0  0  0  0
   26.9596   -7.4658    0.0000 H   0  0  0  0  0  0  0  0  0  0  0  0
   24.4046   -6.9951    0.0000 H   0  0  0  0  0  0  0  0  0  0  0  0
   19.7143   -6.7988    0.0000 H   0  0  0  0  0  0  0  0  0  0  0  0
   15.5655   -8.7432    0.0000 H   0  0  0  0  0  0  0  0  0  0  0  0
   16.8645   -8.5873    0.0000 H   0  0  0  0  0  0  0  0  0  0  0  0
   13.8298   -8.7729    0.0000 H   0  0  0  0  0  0  0  0  0  0  0  0
   14.9628   -8.9080    0.0000 H   0  0  0  0  0  0  0  0  0  0  0  0
   11.8900   -8.0510    0.0000 H   0  0  0  0  0  0  0  0  0  0  0  0
   13.2342   -8.6478    0.0000 H   0  0  0  0  0  0  0  0  0  0  0  0
   10.8659   -7.6157    0.0000 H   0  0  0  0  0  0  0  0  0  0  0  0
   19.2470   -8.8420    0.0000 H   0  0  0  0  0  0  0  0  0  0  0  0
   20.2871   -7.3920    0.0000 H   0  0  0  0  0  0  0  0  0  0  0  0
   19.5408   -6.1172    0.0000 H   0  0  0  0  0  0  0  0  0  0  0  0
   20.0650   -8.5035    0.0000 H   0  0  0  0  0  0  0  0  0  0  0  0
   17.1975  -10.0583    0.0000 H   0  0  0  0  0  0  0  0  0  0  0  0
   18.1924  -13.4294    0.0000 H   0  0  0  0  0  0  0  0  0  0  0  0
   19.4776  -12.4206    0.0000 H   0  0  0  0  0  0  0  0  0  0  0  0
   15.1053  -11.8391    0.0000 H   0  0  0  0  0  0  0  0  0  0  0  0
   16.4391  -10.6536    0.0000 H   0  0  0  0  0  0  0  0  0  0  0  0
   15.9657  -15.0389    0.0000 H   0  0  0  0  0  0  0  0  0  0  0  0
   17.4339  -14.0248    0.0000 H   0  0  0  0  0  0  0  0  0  0  0  0
   13.6034  -12.5720    0.0000 H   0  0  0  0  0  0  0  0  0  0  0  0
   11.9273  -16.7482    0.0000 H   0  0  0  0  0  0  0  0  0  0  0  0
   14.3384  -17.7159    0.0000 H   0  0  0  0  0  0  0  0  0  0  0  0
   16.3821  -16.1116    0.0000 H   0  0  0  0  0  0  0  0  0  0  0  0
   22.4875  -11.4200    0.0000 H   0  0  0  0  0  0  0  0  0  0  0  0
  1  2  1  0
  2  3  1  0
  3  4  2  0
  4  5  1  0
  5  6  2  0
  6  7  1  0
  7  8  2  0
  7  9  1  0
  9 10  1  0
 10 11  1  0
 11 12  2  0
  9 13  1  0
 13 14  1  0
 14 15  2  0
 15 16  1  0
 16 17  2  0
 17 18  1  0
 16 19  1  0
 14 20  1  0
 20 21  1  0
 21 22  2  0
 22 23  1  0
 23 24  2  0
 24 25  1  0
 25 26  2  0
 25 27  1  0
  1 28  2  0
  1 29  1  0
 29 30  1  0
 30 31  1  0
 31 32  1  0
 32 33  2  0
 32 34  1  0
 34 35  1  0
 35 36  1  0
 36 37  1  0
 37 38  1  0
 38 39  1  0
 39 40  1  0
 40 41  2  3
 40 42  1  0
 35 43  1  0
 43 44  2  0
 43 45  1  0
 45 46  1  0
 46 47  1  0
 47 48  1  0
 48 49  1  0
 49 50  1  0
 50 51  1  0
 51 52  2  3
 51 53  1  0
 46 54  1  0
 54 55  2  0
 54 56  1  0
 56 57  1  0
 57 58  1  0
 58 59  2  0
 58 60  1  0
 60 61  1  0
 61 62  1  0
 62 63  1  0
 61 64  1  0
 64 65  2  0
 64 66  1  0
 66 67  1  0
 67 68  1  0
 68 69  1  0
 69 70  1  0
 70 71  1  0
 71 72  1  0
 72 73  2  3
 72 74  1  0
 67 75  1  0
 75 76  2  0
 75 77  1  0
 77 78  1  0
 78 79  1  0
 79 80  1  0
 80 81  1  0
 81 82  1  0
 82 83  2  0
 82 84  1  0
 84 85  1  0
 85 86  1  0
 86 87  1  0
 85 88  1  0
 88 89  2  0
 88 90  1  0
 90 91  1  0
 91 92  1  0
 92 93  2  0
 92 94  1  0
 94 95  1  0
 95 96  1  0
 95 97  1  0
 97 98  2  0
 97 99  1  0
100 99  1  6
100101  1  0
101102  1  0
102103  1  0
103104  1  0
100105  1  0
100106  1  0
106107  2  0
106108  1  0
108109  1  0
109110  1  0
110111  1  0
111112  1  0
112113  1  0
113114  1  0
114115  2  3
114116  1  0
109117  1  0
117118  2  0
117119  1  0
119120  1  0
120121  1  0
121122  1  0
122123  1  0
123124  1  0
124125  1  0
125126  2  3
125127  1  0
120128  1  0
128129  2  0
128130  1  0
130131  1  0
131132  1  0
132133  1  0
133134  1  0
134135  1  0
135136  1  0
136137  2  3
136138  1  0
131139  1  0
139140  2  0
139141  1  0
141142  1  0
142143  1  0
143144  1  0
144145  1  0
145146  1  0
142147  1  0
142148  1  6
148149  2  0
148150  1  0
150151  1  0
151152  1  0
152153  1  0
153154  1  0
154155  1  0
155156  1  0
156157  2  3
156158  1  0
151159  1  0
159160  2  0
159161  1  0
  8  3  1  0
 81 77  1  0
 11  6  1  0
104146  2  0
 18 13  2  0
 22  9  1  0
 26 21  1  0
  2162  1  0
  4163  1  0
  5164  1  0
  8165  1  0
 15166  1  0
 17167  1  0
 18168  1  0
 19169  1  0
 23170  1  0
 24171  1  0
 26172  1  0
 27173  1  0
 29174  1  0
 30175  1  0
 30176  1  0
 31177  1  0
 31178  1  0
 34179  1  0
 35180  1  1
 36181  1  0
 36182  1  0
 37183  1  0
 37184  1  0
 38185  1  0
 38186  1  0
 39187  1  0
 41188  1  0
 42189  1  0
 42190  1  0
 45191  1  0
 46192  1  6
 47193  1  0
 47194  1  0
 48195  1  0
 48196  1  0
 49197  1  0
 49198  1  0
 50199  1  0
 52200  1  0
 53201  1  0
 53202  1  0
 56203  1  0
 57204  1  0
 57205  1  0
 60206  1  0
 61207  1  6
 62208  1  0
 62209  1  0
 63210  1  0
 66211  1  0
 67212  1  1
 68213  1  0
 68214  1  0
 69215  1  0
 69216  1  0
 70217  1  0
 70218  1  0
 71219  1  0
 73220  1  0
 74221  1  0
 74222  1  0
 78223  1  0
 78224  1  0
 79225  1  0
 79226  1  0
 80227  1  0
 80228  1  0
 81229  1  0
 84230  1  0
 85231  1  1
 86232  1  0
 86233  1  0
 87234  1  0
 90235  1  0
 91236  1  0
 91237  1  0
 94238  1  0
 95239  1  1
 96240  1  0
 96241  1  0
 96242  1  0
 99243  1  0
101244  1  0
101245  1  0
102246  1  0
102247  1  0
103248  1  0
103249  1  0
104250  1  0
105251  1  0
105252  1  0
105253  1  0
108254  1  0
109255  1  1
110256  1  0
110257  1  0
111258  1  0
111259  1  0
112260  1  0
112261  1  0
113262  1  0
115263  1  0
116264  1  0
116265  1  0
119266  1  0
120267  1  1
121268  1  0
121269  1  0
122270  1  0
122271  1  0
123272  1  0
123273  1  0
124274  1  0
126275  1  0
127276  1  0
127277  1  0
130278  1  0
131279  1  1
132280  1  0
132281  1  0
133282  1  0
133283  1  0
134284  1  0
134285  1  0
135286  1  0
137287  1  0
138288  1  0
138289  1  0
141290  1  0
143291  1  0
143292  1  0
144293  1  0
144294  1  0
145295  1  0
145296  1  0
146297  1  0
147298  1  0
147299  1  0
147300  1  0
150301  1  0
151302  1  6
152303  1  0
152304  1  0
153305  1  0
153306  1  0
154307  1  0
154308  1  0
155309  1  0
157310  1  0
158311  1  0
158312  1  0
161313  1  0
M  END
