
     RDKit          2D

300307  0  0  0  0  0  0  0  0999 V2000
   -7.0579  -10.1038    0.0000 C   0  0  0  0  0  0  0  0  0  0  0  0
   -5.5715  -10.3051    0.0000 N   0  0  0  0  0  0  0  0  0  0  0  0
   -5.0026  -11.6930    0.0000 C   0  0  0  0  0  0  0  0  0  0  0  0
   -5.9202  -12.8797    0.0000 C   0  0  0  0  0  0  0  0  0  0  0  0
   -5.3513  -14.2676    0.0000 C   0  0  0  0  0  0  0  0  0  0  0  0
   -3.8649  -14.4689    0.0000 C   0  0  0  0  0  0  0  0  0  0  0  0
   -2.9473  -13.2823    0.0000 C   0  0  0  0  0  0  0  0  0  0  0  0
   -3.5162  -11.8944    0.0000 C   0  0  0  0  0  0  0  0  0  0  0  0
   -1.5352  -13.7883    0.0000 C   0  0  0  0  0  0  0  0  0  0  0  0
   -1.5801  -15.2876    0.0000 O   0  0  0  0  0  0  0  0  0  0  0  0
   -3.0199  -15.7083    0.0000 C   0  0  0  0  0  0  0  0  0  0  0  0
   -3.5259  -17.1204    0.0000 O   0  0  0  0  0  0  0  0  0  0  0  0
   -0.1838  -14.4391    0.0000 C   0  0  0  0  0  0  0  0  0  0  0  0
    1.0556  -13.5941    0.0000 C   0  0  0  0  0  0  0  0  0  0  0  0
    2.4070  -14.2449    0.0000 C   0  0  0  0  0  0  0  0  0  0  0  0
    2.5192  -15.7407    0.0000 C   0  0  0  0  0  0  0  0  0  0  0  0
    1.2798  -16.5857    0.0000 C   0  0  0  0  0  0  0  0  0  0  0  0
   -0.0716  -15.9349    0.0000 C   0  0  0  0  0  0  0  0  0  0  0  0
    3.8706  -16.3915    0.0000 O   0  0  0  0  0  0  0  0  0  0  0  0
    0.9435  -12.0983    0.0000 O   0  0  0  0  0  0  0  0  0  0  0  0
   -0.4080  -11.4475    0.0000 C   0  0  0  0  0  0  0  0  0  0  0  0
   -1.6473  -12.2925    0.0000 C   0  0  0  0  0  0  0  0  0  0  0  0
   -2.4204  -11.2473    0.0000 C   0  0  0  0  0  0  0  0  0  0  0  0
   -2.4802  -10.4496    0.0000 C   0  0  0  0  0  0  0  0  0  0  0  0
   -1.8193   -9.9989    0.0000 C   0  0  0  0  0  0  0  0  0  0  0  0
   -1.0985  -10.3460    0.0000 C   0  0  0  0  0  0  0  0  0  0  0  0
   -1.9837   -7.8051    0.0000 O   0  0  0  0  0  0  0  0  0  0  0  0
   -7.9755  -11.2904    0.0000 S   0  0  0  0  0  0  0  0  0  0  0  0
   -7.6268   -8.7158    0.0000 N   0  0  0  0  0  0  0  0  0  0  0  0
   -9.1132   -8.5145    0.0000 C   0  0  0  0  0  0  0  0  0  0  0  0
   -9.6820   -7.1266    0.0000 C   0  0  0  0  0  0  0  0  0  0  0  0
  -11.1685   -6.9252    0.0000 C   0  0  0  0  0  0  0  0  0  0  0  0
  -12.0860   -8.1118    0.0000 O   0  0  0  0  0  0  0  0  0  0  0  0
  -11.7373   -5.5373    0.0000 N   0  0  0  0  0  0  0  0  0  0  0  0
  -13.2238   -5.3360    0.0000 C   0  0  0  0  0  0  0  0  0  0  0  0
  -14.6894   -5.6552    0.0000 C   0  0  0  0  0  0  0  0  0  0  0  0
  -15.6987   -4.5455    0.0000 C   0  0  0  0  0  0  0  0  0  0  0  0
  -17.1643   -4.8647    0.0000 C   0  0  0  0  0  0  0  0  0  0  0  0
  -18.0853   -4.0722    0.0000 O   0  0  0  0  0  0  0  0  0  0  0  0
  -17.6207   -6.2936    0.0000 O   0  0  0  0  0  0  0  0  0  0  0  0
  -13.7926   -3.9480    0.0000 C   0  0  0  0  0  0  0  0  0  0  0  0
  -12.8751   -2.7614    0.0000 O   0  0  0  0  0  0  0  0  0  0  0  0
  -15.2791   -3.7467    0.0000 N   0  0  0  0  0  0  0  0  0  0  0  0
  -15.8479   -2.3587    0.0000 C   0  0  0  0  0  0  0  0  0  0  0  0
  -15.9078   -0.8599    0.0000 C   0  0  0  0  0  0  0  0  0  0  0  0
  -14.6397   -0.0587    0.0000 C   0  0  0  0  0  0  0  0  0  0  0  0
  -14.3351    1.4100    0.0000 N   0  0  0  0  0  0  0  0  0  0  0  0
  -13.3118   -0.7563    0.0000 O   0  0  0  0  0  0  0  0  0  0  0  0
  -17.3343   -2.1574    0.0000 C   0  0  0  0  0  0  0  0  0  0  0  0
  -18.1892   -3.0208    0.0000 O   0  0  0  0  0  0  0  0  0  0  0  0
  -17.9032   -0.7695    0.0000 N   0  0  0  0  0  0  0  0  0  0  0  0
  -19.3604   -0.4139    0.0000 C   0  0  0  0  0  0  0  0  0  0  0  0
  -19.4726    1.0819    0.0000 C   0  0  0  0  0  0  0  0  0  0  0  0
  -18.0846    1.6508    0.0000 C   0  0  0  0  0  0  0  0  0  0  0  0
  -17.1147    0.5066    0.0000 C   0  0  0  0  0  0  0  0  0  0  0  0
  -16.0781    1.5908    0.0000 C   0  0  0  0  0  0  0  0  0  0  0  0
  -16.3201    3.0711    0.0000 O   0  0  0  0  0  0  0  0  0  0  0  0
  -14.6209    1.2352    0.0000 N   0  0  0  0  0  0  0  0  0  0  0  0
  -13.5843    2.3194    0.0000 C   0  0  0  0  0  0  0  0  0  0  0  0
  -12.9811    3.6927    0.0000 C   0  0  0  0  0  0  0  0  0  0  0  0
  -11.4901    3.8570    0.0000 C   0  0  0  0  0  0  0  0  0  0  0  0
  -10.8868    5.2304    0.0000 C   0  0  0  0  0  0  0  0  0  0  0  0
   -9.4799    5.7505    0.0000 O   0  0  0  0  0  0  0  0  0  0  0  0
  -12.0408    6.1887    0.0000 O   0  0  0  0  0  0  0  0  0  0  0  0
  -12.1271    1.9638    0.0000 C   0  0  0  0  0  0  0  0  0  0  0  0
  -11.8850    0.4834    0.0000 O   0  0  0  0  0  0  0  0  0  0  0  0
  -11.0905    3.0480    0.0000 N   0  0  0  0  0  0  0  0  0  0  0  0
   -9.6332    2.6924    0.0000 C   0  0  0  0  0  0  0  0  0  0  0  0
   -8.9356    1.3645    0.0000 C   0  0  0  0  0  0  0  0  0  0  0  0
   -7.8776    0.3012    0.0000 C   0  0  0  0  0  0  0  0  0  0  0  0
   -6.5532   -0.4030    0.0000 C   0  0  0  0  0  0  0  0  0  0  0  0
   -5.0800   -0.6855    0.0000 C   0  0  0  0  0  0  0  0  0  0  0  0
  -10.6939    1.6318    0.0000 C   0  0  0  0  0  0  0  0  0  0  0  0
   -9.9085    4.1669    0.0000 C   0  0  0  0  0  0  0  0  0  0  0  0
  -11.3267    4.6554    0.0000 O   0  0  0  0  0  0  0  0  0  0  0  0
   -9.7368    5.6571    0.0000 N   0  0  0  0  0  0  0  0  0  0  0  0
   -9.1336    7.0304    0.0000 C   0  0  0  0  0  0  0  0  0  0  0  0
   -9.7641    8.3915    0.0000 C   0  0  0  0  0  0  0  0  0  0  0  0
  -11.2634    8.3428    0.0000 C   0  0  0  0  0  0  0  0  0  0  0  0
   -9.8912    9.8861    0.0000 C   0  0  0  0  0  0  0  0  0  0  0  0
  -11.2491   10.5234    0.0000 C   0  0  0  0  0  0  0  0  0  0  0  0
   -8.1523    8.1650    0.0000 C   0  0  0  0  0  0  0  0  0  0  0  0
   -8.9818    9.4148    0.0000 O   0  0  0  0  0  0  0  0  0  0  0  0
   -6.8803    8.9599    0.0000 N   0  0  0  0  0  0  0  0  0  0  0  0
   -5.4304    9.3445    0.0000 C   0  0  0  0  0  0  0  0  0  0  0  0
   -4.7595   10.6861    0.0000 C   0  0  0  0  0  0  0  0  0  0  0  0
   -5.5859   11.9379    0.0000 C   0  0  0  0  0  0  0  0  0  0  0  0
   -4.9149   13.2795    0.0000 C   0  0  0  0  0  0  0  0  0  0  0  0
   -6.7905   12.8317    0.0000 C   0  0  0  0  0  0  0  0  0  0  0  0
   -3.9316    9.2847    0.0000 C   0  0  0  0  0  0  0  0  0  0  0  0
   -3.6491   10.7579    0.0000 O   0  0  0  0  0  0  0  0  0  0  0  0
   -2.5170    8.7858    0.0000 N   0  0  0  0  0  0  0  0  0  0  0  0
   -1.3123    7.8921    0.0000 C   0  0  0  0  0  0  0  0  0  0  0  0
    0.1549    8.2040    0.0000 C   0  0  0  0  0  0  0  0  0  0  0  0
    0.6184    9.6306    0.0000 C   0  0  0  0  0  0  0  0  0  0  0  0
    2.0856    9.9425    0.0000 O   0  0  0  0  0  0  0  0  0  0  0  0
   -0.3853   10.7453    0.0000 O   0  0  0  0  0  0  0  0  0  0  0  0
   -0.4246    6.6830    0.0000 C   0  0  0  0  0  0  0  0  0  0  0  0
    0.9033    7.3806    0.0000 O   0  0  0  0  0  0  0  0  0  0  0  0
    0.0673    5.2659    0.0000 N   0  0  0  0  0  0  0  0  0  0  0  0
    0.1197    3.7668    0.0000 C   0  0  0  0  0  0  0  0  0  0  0  0
   -0.2721    2.3189    0.0000 C   0  0  0  0  0  0  0  0  0  0  0  0
   -1.0733    1.0508    0.0000 C   0  0  0  0  0  0  0  0  0  0  0  0
   -2.2127    0.0752    0.0000 C   0  0  0  0  0  0  0  0  0  0  0  0
   -3.5890   -0.5212    0.0000 C   0  0  0  0  0  0  0  0  0  0  0  0
    1.4646    4.4311    0.0000 C   0  0  0  0  0  0  0  0  0  0  0  0
    1.2783    2.8142    0.0000 C   0  0  0  0  0  0  0  0  0  0  0  0
    1.3980    1.3190    0.0000 O   0  0  0  0  0  0  0  0  0  0  0  0
    2.6827    3.3413    0.0000 N   0  0  0  0  0  0  0  0  0  0  0  0
    3.8413    2.3886    0.0000 C   0  0  0  0  0  0  0  0  0  0  0  0
    4.6042    1.0971    0.0000 C   0  0  0  0  0  0  0  0  0  0  0  0
    3.8673   -0.2093    0.0000 C   0  0  0  0  0  0  0  0  0  0  0  0
    4.4910   -1.5735    0.0000 C   0  0  0  0  0  0  0  0  0  0  0  0
    3.3864   -2.5883    0.0000 N   0  0  0  0  0  0  0  0  0  0  0  0
    2.0799   -1.8513    0.0000 C   0  0  0  0  0  0  0  0  0  0  0  0
    2.3771   -0.3810    0.0000 N   0  0  0  0  0  0  0  0  0  0  0  0
    5.2456    2.9157    0.0000 C   0  0  0  0  0  0  0  0  0  0  0  0
    5.4913    4.3954    0.0000 O   0  0  0  0  0  0  0  0  0  0  0  0
    6.4043    1.9631    0.0000 N   0  0  0  0  0  0  0  0  0  0  0  0
    7.8086    2.4901    0.0000 C   0  0  0  0  0  0  0  0  0  0  0  0
    8.9480    3.4658    0.0000 C   0  0  0  0  0  0  0  0  0  0  0  0
   10.4129    3.1430    0.0000 C   0  0  0  0  0  0  0  0  0  0  0  0
    8.9673    1.5375    0.0000 C   0  0  0  0  0  0  0  0  0  0  0  0
    8.7216    0.0577    0.0000 O   0  0  0  0  0  0  0  0  0  0  0  0
   10.3716    2.0646    0.0000 N   0  0  0  0  0  0  0  0  0  0  0  0
   11.5303    1.1119    0.0000 C   0  0  0  0  0  0  0  0  0  0  0  0
   12.2932   -0.1796    0.0000 C   0  0  0  0  0  0  0  0  0  0  0  0
   11.5562   -1.4860    0.0000 C   0  0  0  0  0  0  0  0  0  0  0  0
   12.3192   -2.7775    0.0000 C   0  0  0  0  0  0  0  0  0  0  0  0
   11.5822   -4.0840    0.0000 N   0  0  0  0  0  0  0  0  0  0  0  0
   13.8191   -2.7625    0.0000 O   0  0  0  0  0  0  0  0  0  0  0  0
   12.9346    1.6390    0.0000 C   0  0  0  0  0  0  0  0  0  0  0  0
   13.1803    3.1187    0.0000 O   0  0  0  0  0  0  0  0  0  0  0  0
   14.0932    0.6864    0.0000 N   0  0  0  0  0  0  0  0  0  0  0  0
   15.4976    1.2134    0.0000 C   0  0  0  0  0  0  0  0  0  0  0  0
   16.6370    2.1890    0.0000 C   0  0  0  0  0  0  0  0  0  0  0  0
   18.0516    1.6901    0.0000 C   0  0  0  0  0  0  0  0  0  0  0  0
   19.1909    2.6657    0.0000 C   0  0  0  0  0  0  0  0  0  0  0  0
   20.6055    2.1668    0.0000 N   0  0  0  0  0  0  0  0  0  0  0  0
   21.7449    3.1424    0.0000 C   0  0  0  0  0  0  0  0  0  0  0  0
   23.0881    2.4748    0.0000 N   0  0  0  0  0  0  0  0  0  0  0  0
   21.4697    4.6170    0.0000 N   0  0  0  0  0  0  0  0  0  0  0  0
   16.6562    0.2608    0.0000 C   0  0  0  0  0  0  0  0  0  0  0  0
   16.4105   -1.2190    0.0000 O   0  0  0  0  0  0  0  0  0  0  0  0
   18.0606    0.7879    0.0000 N   0  0  0  0  0  0  0  0  0  0  0  0
   19.2192   -0.1648    0.0000 C   0  0  0  0  0  0  0  0  0  0  0  0
   19.9822   -1.4563    0.0000 C   0  0  0  0  0  0  0  0  0  0  0  0
   19.2452   -2.7627    0.0000 C   0  0  0  0  0  0  0  0  0  0  0  0
   20.6236    0.3623    0.0000 C   0  0  0  0  0  0  0  0  0  0  0  0
   21.2200    1.7386    0.0000 O   0  0  0  0  0  0  0  0  0  0  0  0
   21.7822   -0.5904    0.0000 N   0  0  0  0  0  0  0  0  0  0  0  0
   23.1865   -0.0633    0.0000 C   0  0  0  0  0  0  0  0  0  0  0  0
   24.3259    0.9123    0.0000 C   0  0  0  0  0  0  0  0  0  0  0  0
   25.7405    0.4134    0.0000 C   0  0  0  0  0  0  0  0  0  0  0  0
   26.8799    1.3890    0.0000 S   0  0  0  0  0  0  0  0  0  0  0  0
   28.2945    0.8901    0.0000 C   0  0  0  0  0  0  0  0  0  0  0  0
   24.3452   -1.0159    0.0000 C   0  0  0  0  0  0  0  0  0  0  0  0
   25.8033   -0.6640    0.0000 O   0  0  0  0  0  0  0  0  0  0  0  0
   24.0995   -2.4957    0.0000 O   0  0  0  0  0  0  0  0  0  0  0  0
   -4.8054   -9.0155    0.0000 H   0  0  0  0  0  0  0  0  0  0  0  0
   -7.4066  -12.6783    0.0000 H   0  0  0  0  0  0  0  0  0  0  0  0
   -6.2689  -15.4542    0.0000 H   0  0  0  0  0  0  0  0  0  0  0  0
   -2.9130  -10.5210    0.0000 H   0  0  0  0  0  0  0  0  0  0  0  0
    3.6464  -13.3999    0.0000 H   0  0  0  0  0  0  0  0  0  0  0  0
    1.3919  -18.0815    0.0000 H   0  0  0  0  0  0  0  0  0  0  0  0
   -1.3110  -16.7799    0.0000 H   0  0  0  0  0  0  0  0  0  0  0  0
    3.9828  -17.8873    0.0000 H   0  0  0  0  0  0  0  0  0  0  0  0
   -4.2382  -12.4867    0.0000 H   0  0  0  0  0  0  0  0  0  0  0  0
   -4.3730   -9.3352    0.0000 H   0  0  0  0  0  0  0  0  0  0  0  0
    0.7192   -9.1067    0.0000 H   0  0  0  0  0  0  0  0  0  0  0  0
   -0.7444   -6.9601    0.0000 H   0  0  0  0  0  0  0  0  0  0  0  0
   -6.7092   -7.5292    0.0000 H   0  0  0  0  0  0  0  0  0  0  0  0
  -10.5788   -8.8337    0.0000 H   0  0  0  0  0  0  0  0  0  0  0  0
   -9.0533  -10.0133    0.0000 H   0  0  0  0  0  0  0  0  0  0  0  0
   -9.7419   -5.6277    0.0000 H   0  0  0  0  0  0  0  0  0  0  0  0
   -8.2164   -6.8073    0.0000 H   0  0  0  0  0  0  0  0  0  0  0  0
  -10.8198   -4.3507    0.0000 H   0  0  0  0  0  0  0  0  0  0  0  0
  -13.1639   -6.8348    0.0000 H   0  0  0  0  0  0  0  0  0  0  0  0
  -15.9575   -6.4564    0.0000 H   0  0  0  0  0  0  0  0  0  0  0  0
  -14.1205   -7.0431    0.0000 H   0  0  0  0  0  0  0  0  0  0  0  0
  -16.2675   -3.1575    0.0000 H   0  0  0  0  0  0  0  0  0  0  0  0
  -14.9553   -3.2426    0.0000 H   0  0  0  0  0  0  0  0  0  0  0  0
  -16.4565   -4.6760    0.0000 H   0  0  0  0  0  0  0  0  0  0  0  0
  -14.3823   -2.0395    0.0000 H   0  0  0  0  0  0  0  0  0  0  0  0
  -16.1239    0.6244    0.0000 H   0  0  0  0  0  0  0  0  0  0  0  0
  -17.4071   -0.8150    0.0000 H   0  0  0  0  0  0  0  0  0  0  0  0
  -13.2572    1.9980    0.0000 H   0  0  0  0  0  0  0  0  0  0  0  0
  -15.6542    2.6960    0.0000 H   0  0  0  0  0  0  0  0  0  0  0  0
  -19.5618   -1.9003    0.0000 H   0  0  0  0  0  0  0  0  0  0  0  0
  -20.8598   -0.3690    0.0000 H   0  0  0  0  0  0  0  0  0  0  0  0
  -20.9485    0.8141    0.0000 H   0  0  0  0  0  0  0  0  0  0  0  0
  -19.8932    2.5217    0.0000 H   0  0  0  0  0  0  0  0  0  0  0  0
  -18.7954    2.9717    0.0000 H   0  0  0  0  0  0  0  0  0  0  0  0
  -17.0866    2.7706    0.0000 H   0  0  0  0  0  0  0  0  0  0  0  0
  -15.7413   -0.0966    0.0000 H   0  0  0  0  0  0  0  0  0  0  0  0
  -13.8643   -0.0600    0.0000 H   0  0  0  0  0  0  0  0  0  0  0  0
  -14.8320    3.1519    0.0000 H   0  0  0  0  0  0  0  0  0  0  0  0
  -12.8839    5.1896    0.0000 H   0  0  0  0  0  0  0  0  0  0  0  0
  -14.4383    4.0483    0.0000 H   0  0  0  0  0  0  0  0  0  0  0  0
   -9.9901    3.8646    0.0000 H   0  0  0  0  0  0  0  0  0  0  0  0
  -11.0442    2.4248    0.0000 H   0  0  0  0  0  0  0  0  0  0  0  0
  -11.3325    4.5284    0.0000 H   0  0  0  0  0  0  0  0  0  0  0  0
  -10.4108    1.0929    0.0000 H   0  0  0  0  0  0  0  0  0  0  0  0
   -9.4697   -0.0372    0.0000 H   0  0  0  0  0  0  0  0  0  0  0  0
   -9.1127   -0.5500    0.0000 H   0  0  0  0  0  0  0  0  0  0  0  0
   -8.1565   -1.1726    0.0000 H   0  0  0  0  0  0  0  0  0  0  0  0
   -7.6191   -1.4584    0.0000 H   0  0  0  0  0  0  0  0  0  0  0  0
   -6.2048   -1.8619    0.0000 H   0  0  0  0  0  0  0  0  0  0  0  0
   -5.1398   -2.1843    0.0000 H   0  0  0  0  0  0  0  0  0  0  0  0
  -10.3815   -0.0046    0.0000 H   0  0  0  0  0  0  0  0  0  0  0  0
  -11.7086    0.5840    0.0000 H   0  0  0  0  0  0  0  0  0  0  0  0
  -11.8589    2.2485    0.0000 H   0  0  0  0  0  0  0  0  0  0  0  0
  -11.1262    6.2225    0.0000 H   0  0  0  0  0  0  0  0  0  0  0  0
  -10.6205    6.8327    0.0000 H   0  0  0  0  0  0  0  0  0  0  0  0
   -8.4505    9.1155    0.0000 H   0  0  0  0  0  0  0  0  0  0  0  0
  -12.0722    9.7992    0.0000 H   0  0  0  0  0  0  0  0  0  0  0  0
  -12.7080    8.1413    0.0000 H   0  0  0  0  0  0  0  0  0  0  0  0
  -11.4965    7.0450    0.0000 H   0  0  0  0  0  0  0  0  0  0  0  0
   -9.4994   11.3340    0.0000 H   0  0  0  0  0  0  0  0  0  0  0  0
   -8.3920    9.9348    0.0000 H   0  0  0  0  0  0  0  0  0  0  0  0
  -11.3761   12.0180    0.0000 H   0  0  0  0  0  0  0  0  0  0  0  0
  -12.7430   10.6578    0.0000 H   0  0  0  0  0  0  0  0  0  0  0  0
  -11.9796    9.2133    0.0000 H   0  0  0  0  0  0  0  0  0  0  0  0
   -7.4767   10.3362    0.0000 H   0  0  0  0  0  0  0  0  0  0  0  0
   -6.5121   10.3838    0.0000 H   0  0  0  0  0  0  0  0  0  0  0  0
   -3.5526   11.5768    0.0000 H   0  0  0  0  0  0  0  0  0  0  0  0
   -3.3743   10.1104    0.0000 H   0  0  0  0  0  0  0  0  0  0  0  0
   -6.7928   11.0472    0.0000 H   0  0  0  0  0  0  0  0  0  0  0  0
   -5.5825   14.6228    0.0000 H   0  0  0  0  0  0  0  0  0  0  0  0
   -3.8256   14.3107    0.0000 H   0  0  0  0  0  0  0  0  0  0  0  0
   -3.6103   12.5393    0.0000 H   0  0  0  0  0  0  0  0  0  0  0  0
   -6.8018   14.3316    0.0000 H   0  0  0  0  0  0  0  0  0  0  0  0
   -8.2282   13.2594    0.0000 H   0  0  0  0  0  0  0  0  0  0  0  0
   -7.4615   11.4901    0.0000 H   0  0  0  0  0  0  0  0  0  0  0  0
   -1.8129   10.1102    0.0000 H   0  0  0  0  0  0  0  0  0  0  0  0
   -0.9932    9.3577    0.0000 H   0  0  0  0  0  0  0  0  0  0  0  0
    1.6403    7.9952    0.0000 H   0  0  0  0  0  0  0  0  0  0  0  0
    0.5684    6.7621    0.0000 H   0  0  0  0  0  0  0  0  0  0  0  0
    1.5418    5.5411    0.0000 H   0  0  0  0  0  0  0  0  0  0  0  0
    0.5542    1.0671    0.0000 H   0  0  0  0  0  0  0  0  0  0  0  0
    1.2225    2.1919    0.0000 H   0  0  0  0  0  0  0  0  0  0  0  0
   -0.4803   -0.3270    0.0000 H   0  0  0  0  0  0  0  0  0  0  0  0
    0.3174    0.4889    0.0000 H   0  0  0  0  0  0  0  0  0  0  0  0
   -2.2351   -1.4246    0.0000 H   0  0  0  0  0  0  0  0  0  0  0  0
   -0.9426   -0.7229    0.0000 H   0  0  0  0  0  0  0  0  0  0  0  0
   -3.2044   -1.9711    0.0000 H   0  0  0  0  0  0  0  0  0  0  0  0
    2.8767    3.9252    0.0000 H   0  0  0  0  0  0  0  0  0  0  0  0
    2.3612    5.6336    0.0000 H   0  0  0  0  0  0  0  0  0  0  0  0
    0.8958    5.8191    0.0000 H   0  0  0  0  0  0  0  0  0  0  0  0
    3.1069    4.7800    0.0000 H   0  0  0  0  0  0  0  0  0  0  0  0
    2.7019    1.4130    0.0000 H   0  0  0  0  0  0  0  0  0  0  0  0
    5.6381    0.0104    0.0000 H   0  0  0  0  0  0  0  0  0  0  0  0
    5.9458    1.7681    0.0000 H   0  0  0  0  0  0  0  0  0  0  0  0
    5.9613   -1.8707    0.0000 H   0  0  0  0  0  0  0  0  0  0  0  0
    3.5581   -4.0784    0.0000 H   0  0  0  0  0  0  0  0  0  0  0  0
    0.7158   -2.4750    0.0000 H   0  0  0  0  0  0  0  0  0  0  0  0
    6.3408    0.4644    0.0000 H   0  0  0  0  0  0  0  0  0  0  0  0
    7.0457    3.7816    0.0000 H   0  0  0  0  0  0  0  0  0  0  0  0
    9.6850    4.7722    0.0000 H   0  0  0  0  0  0  0  0  0  0  0  0
    7.7894    4.4184    0.0000 H   0  0  0  0  0  0  0  0  0  0  0  0
   11.5020    3.9424    0.0000 H   0  0  0  0  0  0  0  0  0  0  0  0
   11.5212    2.0142    0.0000 H   0  0  0  0  0  0  0  0  0  0  0  0
   10.3254    1.4673    0.0000 H   0  0  0  0  0  0  0  0  0  0  0  0
   10.7959    3.5033    0.0000 H   0  0  0  0  0  0  0  0  0  0  0  0
   10.2805    0.2825    0.0000 H   0  0  0  0  0  0  0  0  0  0  0  0
   13.3271   -1.2663    0.0000 H   0  0  0  0  0  0  0  0  0  0  0  0
   13.6348    0.4914    0.0000 H   0  0  0  0  0  0  0  0  0  0  0  0
   10.4168   -2.4616    0.0000 H   0  0  0  0  0  0  0  0  0  0  0  0
   10.2901   -0.6817    0.0000 H   0  0  0  0  0  0  0  0  0  0  0  0
   12.3451   -5.3755    0.0000 H   0  0  0  0  0  0  0  0  0  0  0  0
   10.0822   -4.0990    0.0000 H   0  0  0  0  0  0  0  0  0  0  0  0
   14.0297   -0.8123    0.0000 H   0  0  0  0  0  0  0  0  0  0  0  0
   14.7346    2.5049    0.0000 H   0  0  0  0  0  0  0  0  0  0  0  0
   17.2092    3.5756    0.0000 H   0  0  0  0  0  0  0  0  0  0  0  0
   15.4783    3.1417    0.0000 H   0  0  0  0  0  0  0  0  0  0  0  0
   19.2102    0.7375    0.0000 H   0  0  0  0  0  0  0  0  0  0  0  0
   18.0143    0.1906    0.0000 H   0  0  0  0  0  0  0  0  0  0  0  0
   19.9279    3.9722    0.0000 H   0  0  0  0  0  0  0  0  0  0  0  0
   18.1571    3.7525    0.0000 H   0  0  0  0  0  0  0  0  0  0  0  0
   21.2294    0.8027    0.0000 H   0  0  0  0  0  0  0  0  0  0  0  0
   24.2989    3.6191    0.0000 H   0  0  0  0  0  0  0  0  0  0  0  0
   23.2730    1.1365    0.0000 H   0  0  0  0  0  0  0  0  0  0  0  0
   22.6091    5.5926    0.0000 H   0  0  0  0  0  0  0  0  0  0  0  0
   20.0551    5.1159    0.0000 H   0  0  0  0  0  0  0  0  0  0  0  0
   18.6570    2.1642    0.0000 H   0  0  0  0  0  0  0  0  0  0  0  0
   17.9694   -0.9942    0.0000 H   0  0  0  0  0  0  0  0  0  0  0  0
   21.0160   -2.5431    0.0000 H   0  0  0  0  0  0  0  0  0  0  0  0
   21.3237   -0.7853    0.0000 H   0  0  0  0  0  0  0  0  0  0  0  0
   20.0081   -4.0542    0.0000 H   0  0  0  0  0  0  0  0  0  0  0  0
   18.1058   -3.7383    0.0000 H   0  0  0  0  0  0  0  0  0  0  0  0
   17.9790   -1.9584    0.0000 H   0  0  0  0  0  0  0  0  0  0  0  0
   21.7187   -2.0890    0.0000 H   0  0  0  0  0  0  0  0  0  0  0  0
   22.4236    1.2282    0.0000 H   0  0  0  0  0  0  0  0  0  0  0  0
   25.0629    2.2188    0.0000 H   0  0  0  0  0  0  0  0  0  0  0  0
   22.9712    1.5563    0.0000 H   0  0  0  0  0  0  0  0  0  0  0  0
   26.7744   -0.6734    0.0000 H   0  0  0  0  0  0  0  0  0  0  0  0
   25.5208   -1.0704    0.0000 H   0  0  0  0  0  0  0  0  0  0  0  0
   29.4339    1.8657    0.0000 H   0  0  0  0  0  0  0  0  0  0  0  0
   29.4531   -0.0625    0.0000 H   0  0  0  0  0  0  0  0  0  0  0  0
   27.7222   -0.4964    0.0000 H   0  0  0  0  0  0  0  0  0  0  0  0
  1  2  1  0
  2  3  1  0
  3  4  2  0
  4  5  1  0
  5  6  2  0
  6  7  1  0
  7  8  2  0
  7  9  1  0
  9 10  1  0
 10 11  1  0
 11 12  2  0
  9 13  1  0
 13 14  1  0
 14 15  2  0
 15 16  1  0
 16 17  2  0
 17 18  1  0
 16 19  1  0
 14 20  1  0
 20 21  1  0
 21 22  2  0
 22 23  1  0
 23 24  2  0
 24 25  1  0
 25 26  2  0
 25 27  1  0
  1 28  2  0
  1 29  1  0
 29 30  1  0
 30 31  1  0
 31 32  1  0
 32 33  2  0
 32 34  1  0
 34 35  1  0
 35 36  1  0
 36 37  1  0
 37 38  1  0
 38 39  2  0
 38 40  1  0
 35 41  1  0
 41 42  2  0
 41 43  1  0
 43 44  1  0
 44 45  1  0
 45 46  1  0
 46 47  1  0
 46 48  2  0
 44 49  1  0
 49 50  2  0
 49 51  1  0
 51 52  1  0
 52 53  1  0
 53 54  1  0
 54 55  1  0
 55 56  1  0
 56 57  2  0
 56 58  1  0
 58 59  1  0
 59 60  1  0
 60 61  1  0
 61 62  1  0
 62 63  2  0
 62 64  1  0
 59 65  1  0
 65 66  2  0
 65 67  1  0
 68 67  1  6
 68 69  1  0
 69 70  1  0
 70 71  1  0
 71 72  1  0
 68 73  1  0
 68 74  1  0
 74 75  2  0
 74 76  1  0
 76 77  1  0
 77 78  1  0
 78 79  1  0
 78 80  1  0
 80 81  1  0
 77 82  1  0
 82 83  2  0
 82 84  1  0
 84 85  1  0
 85 86  1  0
 86 87  1  0
 87 88  1  0
 87 89  1  0
 85 90  1  0
 90 91  2  0
 90 92  1  0
 92 93  1  0
 93 94  1  0
 94 95  1  0
 95 96  2  0
 95 97  1  0
 93 98  1  0
 98 99  2  0
 98100  1  0
100101  1  0
101102  1  0
102103  1  0
103104  1  0
104105  1  0
101106  1  0
101107  1  6
107108  2  0
107109  1  0
109110  1  0
110111  1  0
111112  1  0
112113  2  0
113114  1  0
114115  1  0
115116  2  0
110117  1  0
117118  2  0
117119  1  0
119120  1  0
120121  1  0
121122  1  0
120123  1  0
123124  2  0
123125  1  0
125126  1  0
126127  1  0
127128  1  0
128129  1  0
129130  1  0
129131  2  0
126132  1  0
132133  2  0
132134  1  0
134135  1  0
135136  1  0
136137  1  0
137138  1  0
138139  1  0
139140  1  0
140141  2  3
140142  1  0
135143  1  0
143144  2  0
143145  1  0
145146  1  0
146147  1  0
147148  1  0
146149  1  0
149150  2  0
149151  1  0
151152  1  0
152153  1  0
153154  1  0
154155  1  0
155156  1  0
152157  1  0
157158  2  0
157159  1  0
  8  3  1  0
 55 51  1  0
116112  1  0
 11  6  1  0
 72105  2  0
 18 13  2  0
 22  9  1  0
 26 21  1  0
  2160  1  0
  4161  1  0
  5162  1  0
  8163  1  0
 15164  1  0
 17165  1  0
 18166  1  0
 19167  1  0
 23168  1  0
 24169  1  0
 26170  1  0
 27171  1  0
 29172  1  0
 30173  1  0
 30174  1  0
 31175  1  0
 31176  1  0
 34177  1  0
 35178  1  1
 36179  1  0
 36180  1  0
 37181  1  0
 37182  1  0
 43183  1  0
 44184  1  6
 45185  1  0
 45186  1  0
 47187  1  0
 47188  1  0
 52189  1  0
 52190  1  0
 53191  1  0
 53192  1  0
 54193  1  0
 54194  1  0
 55195  1  0
 58196  1  0
 59197  1  1
 60198  1  0
 60199  1  0
 61200  1  0
 61201  1  0
 67202  1  0
 69203  1  0
 69204  1  0
 70205  1  0
 70206  1  0
 71207  1  0
 71208  1  0
 72209  1  0
 73210  1  0
 73211  1  0
 73212  1  0
 76213  1  0
 77214  1  1
 78215  1  6
 79216  1  0
 79217  1  0
 79218  1  0
 80219  1  0
 80220  1  0
 81221  1  0
 81222  1  0
 81223  1  0
 84224  1  0
 85225  1  1
 86226  1  0
 86227  1  0
 87228  1  0
 88229  1  0
 88230  1  0
 88231  1  0
 89232  1  0
 89233  1  0
 89234  1  0
 92235  1  0
 93236  1  1
 94237  1  0
 94238  1  0
100239  1  0
102240  1  0
102241  1  0
103242  1  0
103243  1  0
104244  1  0
104245  1  0
105246  1  0
106247  1  0
106248  1  0
106249  1  0
109250  1  0
110251  1  6
111252  1  0
111253  1  0
113254  1  0
114255  1  0
115256  1  0
119257  1  0
120258  1  1
121259  1  0
121260  1  0
122261  1  0
122262  1  0
122263  1  0
125264  1  0
126265  1  6
127266  1  0
127267  1  0
128268  1  0
128269  1  0
130270  1  0
130271  1  0
134272  1  0
135273  1  1
136274  1  0
136275  1  0
137276  1  0
137277  1  0
138278  1  0
138279  1  0
139280  1  0
141281  1  0
141282  1  0
142283  1  0
142284  1  0
145285  1  0
146286  1  6
147287  1  0
147288  1  0
148289  1  0
148290  1  0
148291  1  0
151292  1  0
152293  1  1
153294  1  0
153295  1  0
154296  1  0
154297  1  0
156298  1  0
156299  1  0
156300  1  0
M  CHG  5  40  -1  64  -1  97  -1 141   1 159  -1
M  END
