
     RDKit          2D

218225  0  0  0  0  0  0  0  0999 V2000
   14.9413   -0.6749    0.0000 C   0  0  0  0  0  0  0  0  0  0  0  0
   16.2994   -0.0381    0.0000 N   0  0  0  0  0  0  0  0  0  0  0  0
   17.5300   -0.8959    0.0000 C   0  0  0  0  0  0  0  0  0  0  0  0
   17.4024   -2.3904    0.0000 C   0  0  0  0  0  0  0  0  0  0  0  0
   18.6329   -3.2482    0.0000 C   0  0  0  0  0  0  0  0  0  0  0  0
   19.9911   -2.6114    0.0000 C   0  0  0  0  0  0  0  0  0  0  0  0
   20.1186   -1.1168    0.0000 C   0  0  0  0  0  0  0  0  0  0  0  0
   18.8881   -0.2591    0.0000 C   0  0  0  0  0  0  0  0  0  0  0  0
   21.5795   -0.7763    0.0000 C   0  0  0  0  0  0  0  0  0  0  0  0
   22.3547   -2.0604    0.0000 O   0  0  0  0  0  0  0  0  0  0  0  0
   21.3731   -3.1946    0.0000 C   0  0  0  0  0  0  0  0  0  0  0  0
   21.7136   -4.6554    0.0000 O   0  0  0  0  0  0  0  0  0  0  0  0
   23.0679   -0.5903    0.0000 C   0  0  0  0  0  0  0  0  0  0  0  0
   23.6511    0.7917    0.0000 C   0  0  0  0  0  0  0  0  0  0  0  0
   25.1395    0.9776    0.0000 C   0  0  0  0  0  0  0  0  0  0  0  0
   26.0448   -0.2184    0.0000 C   0  0  0  0  0  0  0  0  0  0  0  0
   25.4616   -1.6004    0.0000 C   0  0  0  0  0  0  0  0  0  0  0  0
   23.9732   -1.7864    0.0000 C   0  0  0  0  0  0  0  0  0  0  0  0
   27.5332   -0.0325    0.0000 O   0  0  0  0  0  0  0  0  0  0  0  0
   22.7458    1.9877    0.0000 O   0  0  0  0  0  0  0  0  0  0  0  0
   21.2574    1.8017    0.0000 C   0  0  0  0  0  0  0  0  0  0  0  0
   20.6742    0.4197    0.0000 C   0  0  0  0  0  0  0  0  0  0  0  0
   19.4579    0.8787    0.0000 C   0  0  0  0  0  0  0  0  0  0  0  0
   18.9751    1.5166    0.0000 C   0  0  0  0  0  0  0  0  0  0  0  0
   19.2862    2.2537    0.0000 C   0  0  0  0  0  0  0  0  0  0  0  0
   20.0800    2.3528    0.0000 C   0  0  0  0  0  0  0  0  0  0  0  0
   17.9585    4.0079    0.0000 O   0  0  0  0  0  0  0  0  0  0  0  0
   14.8137   -2.1695    0.0000 S   0  0  0  0  0  0  0  0  0  0  0  0
   13.7108    0.1829    0.0000 N   0  0  0  0  0  0  0  0  0  0  0  0
   12.3526   -0.4539    0.0000 C   0  0  0  0  0  0  0  0  0  0  0  0
   11.1221    0.4038    0.0000 C   0  0  0  0  0  0  0  0  0  0  0  0
    9.7640   -0.2330    0.0000 C   0  0  0  0  0  0  0  0  0  0  0  0
    9.6364   -1.7275    0.0000 O   0  0  0  0  0  0  0  0  0  0  0  0
    8.5334    0.6248    0.0000 N   0  0  0  0  0  0  0  0  0  0  0  0
    7.1753   -0.0120    0.0000 C   0  0  0  0  0  0  0  0  0  0  0  0
    6.1169   -1.0749    0.0000 C   0  0  0  0  0  0  0  0  0  0  0  0
    4.6672   -0.6898    0.0000 C   0  0  0  0  0  0  0  0  0  0  0  0
    3.6088   -1.7527    0.0000 C   0  0  0  0  0  0  0  0  0  0  0  0
    2.1591   -1.3675    0.0000 N   0  0  0  0  0  0  0  0  0  0  0  0
    1.1007   -2.4304    0.0000 C   0  0  0  0  0  0  0  0  0  0  0  0
   -0.2913   -1.8714    0.0000 N   0  0  0  0  0  0  0  0  0  0  0  0
    1.4920   -3.8785    0.0000 N   0  0  0  0  0  0  0  0  0  0  0  0
    5.9448    0.8457    0.0000 C   0  0  0  0  0  0  0  0  0  0  0  0
    6.0723    2.3403    0.0000 O   0  0  0  0  0  0  0  0  0  0  0  0
    4.5867    0.2089    0.0000 N   0  0  0  0  0  0  0  0  0  0  0  0
    3.3561    1.0667    0.0000 C   0  0  0  0  0  0  0  0  0  0  0  0
    2.4931    2.2936    0.0000 C   0  0  0  0  0  0  0  0  0  0  0  0
    3.1242    3.6544    0.0000 C   0  0  0  0  0  0  0  0  0  0  0  0
    2.2612    4.8813    0.0000 C   0  0  0  0  0  0  0  0  0  0  0  0
    2.8923    6.2421    0.0000 C   0  0  0  0  0  0  0  0  0  0  0  0
    2.0293    7.4690    0.0000 N   0  0  0  0  0  0  0  0  0  0  0  0
    1.9980    0.4299    0.0000 C   0  0  0  0  0  0  0  0  0  0  0  0
    1.6441   -0.6048    0.0000 O   0  0  0  0  0  0  0  0  0  0  0  0
    0.7674    1.2877    0.0000 N   0  0  0  0  0  0  0  0  0  0  0  0
   -0.5907    0.6509    0.0000 C   0  0  0  0  0  0  0  0  0  0  0  0
   -1.6491   -0.4120    0.0000 C   0  0  0  0  0  0  0  0  0  0  0  0
   -3.0988   -0.0269    0.0000 C   0  0  0  0  0  0  0  0  0  0  0  0
   -3.4901    1.4212    0.0000 C   0  0  0  0  0  0  0  0  0  0  0  0
   -2.4499    2.0491    0.0000 F   0  0  0  0  0  0  0  0  0  0  0  0
   -4.9398    1.8064    0.0000 C   0  0  0  0  0  0  0  0  0  0  0  0
   -5.6699    3.1167    0.0000 F   0  0  0  0  0  0  0  0  0  0  0  0
   -5.9982    0.7434    0.0000 C   0  0  0  0  0  0  0  0  0  0  0  0
   -7.4479    1.1286    0.0000 F   0  0  0  0  0  0  0  0  0  0  0  0
   -5.6069   -0.7046    0.0000 C   0  0  0  0  0  0  0  0  0  0  0  0
   -6.8911   -1.4798    0.0000 F   0  0  0  0  0  0  0  0  0  0  0  0
   -4.1572   -1.0898    0.0000 C   0  0  0  0  0  0  0  0  0  0  0  0
   -3.4271   -2.4001    0.0000 F   0  0  0  0  0  0  0  0  0  0  0  0
   -1.8212    1.5086    0.0000 C   0  0  0  0  0  0  0  0  0  0  0  0
   -1.3358    2.9279    0.0000 O   0  0  0  0  0  0  0  0  0  0  0  0
   -3.1793    0.8718    0.0000 N   0  0  0  0  0  0  0  0  0  0  0  0
   -4.4099    1.7296    0.0000 C   0  0  0  0  0  0  0  0  0  0  0  0
   -4.5810    3.2198    0.0000 C   0  0  0  0  0  0  0  0  0  0  0  0
   -5.1837    4.5934    0.0000 C   0  0  0  0  0  0  0  0  0  0  0  0
   -6.1646    5.7283    0.0000 C   0  0  0  0  0  0  0  0  0  0  0  0
   -7.4363    6.5236    0.0000 C   0  0  0  0  0  0  0  0  0  0  0  0
   -3.1219    2.4985    0.0000 C   0  0  0  0  0  0  0  0  0  0  0  0
   -4.6856    0.2552    0.0000 C   0  0  0  0  0  0  0  0  0  0  0  0
   -3.5394   -0.7124    0.0000 O   0  0  0  0  0  0  0  0  0  0  0  0
   -5.3837   -1.0725    0.0000 N   0  0  0  0  0  0  0  0  0  0  0  0
   -6.4421   -2.1354    0.0000 C   0  0  0  0  0  0  0  0  0  0  0  0
   -6.3455   -3.6323    0.0000 C   0  0  0  0  0  0  0  0  0  0  0  0
   -5.0009   -4.2971    0.0000 C   0  0  0  0  0  0  0  0  0  0  0  0
   -4.9043   -5.7940    0.0000 C   0  0  0  0  0  0  0  0  0  0  0  0
   -3.5596   -6.4587    0.0000 N   0  0  0  0  0  0  0  0  0  0  0  0
   -3.4630   -7.9556    0.0000 C   0  0  0  0  0  0  0  0  0  0  0  0
   -2.1184   -8.6204    0.0000 N   0  0  0  0  0  0  0  0  0  0  0  0
   -4.7111   -8.7877    0.0000 N   0  0  0  0  0  0  0  0  0  0  0  0
   -7.7668   -2.8391    0.0000 C   0  0  0  0  0  0  0  0  0  0  0  0
   -7.2684   -4.2539    0.0000 O   0  0  0  0  0  0  0  0  0  0  0  0
   -9.2401   -3.1211    0.0000 N   0  0  0  0  0  0  0  0  0  0  0  0
  -10.7310   -2.9563    0.0000 C   0  0  0  0  0  0  0  0  0  0  0  0
  -11.8411   -3.9651    0.0000 C   0  0  0  0  0  0  0  0  0  0  0  0
  -11.5225   -5.4309    0.0000 C   0  0  0  0  0  0  0  0  0  0  0  0
  -12.6325   -6.4397    0.0000 C   0  0  0  0  0  0  0  0  0  0  0  0
  -10.7217   -6.6993    0.0000 C   0  0  0  0  0  0  0  0  0  0  0  0
  -12.1071   -2.3594    0.0000 C   0  0  0  0  0  0  0  0  0  0  0  0
  -12.9025   -3.6312    0.0000 O   0  0  0  0  0  0  0  0  0  0  0  0
  -13.2461   -1.3834    0.0000 N   0  0  0  0  0  0  0  0  0  0  0  0
  -14.0469   -0.1150    0.0000 C   0  0  0  0  0  0  0  0  0  0  0  0
  -15.5277    0.1239    0.0000 C   0  0  0  0  0  0  0  0  0  0  0  0
  -16.4750   -1.0391    0.0000 C   0  0  0  0  0  0  0  0  0  0  0  0
  -17.9559   -0.8002    0.0000 C   0  0  0  0  0  0  0  0  0  0  0  0
  -18.9032   -1.9632    0.0000 C   0  0  0  0  0  0  0  0  0  0  0  0
  -18.3697   -3.3651    0.0000 C   0  0  0  0  0  0  0  0  0  0  0  0
  -16.8888   -3.6040    0.0000 C   0  0  0  0  0  0  0  0  0  0  0  0
  -15.9415   -2.4410    0.0000 C   0  0  0  0  0  0  0  0  0  0  0  0
  -14.4382    1.3331    0.0000 C   0  0  0  0  0  0  0  0  0  0  0  0
  -15.9284    1.1620    0.0000 O   0  0  0  0  0  0  0  0  0  0  0  0
  -14.3852    2.8322    0.0000 N   0  0  0  0  0  0  0  0  0  0  0  0
  -13.8928    4.2490    0.0000 C   0  0  0  0  0  0  0  0  0  0  0  0
  -13.0047    5.4578    0.0000 C   0  0  0  0  0  0  0  0  0  0  0  0
  -11.7996    6.3511    0.0000 C   0  0  0  0  0  0  0  0  0  0  0  0
  -10.3849    6.8495    0.0000 C   0  0  0  0  0  0  0  0  0  0  0  0
   -8.8860    6.9088    0.0000 C   0  0  0  0  0  0  0  0  0  0  0  0
  -15.3868    4.1151    0.0000 C   0  0  0  0  0  0  0  0  0  0  0  0
  -14.6293    5.5558    0.0000 C   0  0  0  0  0  0  0  0  0  0  0  0
  -16.1162    5.7540    0.0000 O   0  0  0  0  0  0  0  0  0  0  0  0
  -14.2011    6.9933    0.0000 O   0  0  0  0  0  0  0  0  0  0  0  0
   16.2439    1.4609    0.0000 H   0  0  0  0  0  0  0  0  0  0  0  0
   16.0443   -3.0272    0.0000 H   0  0  0  0  0  0  0  0  0  0  0  0
   18.5054   -4.7427    0.0000 H   0  0  0  0  0  0  0  0  0  0  0  0
   18.6502    1.2220    0.0000 H   0  0  0  0  0  0  0  0  0  0  0  0
   25.7227    2.3596    0.0000 H   0  0  0  0  0  0  0  0  0  0  0  0
   26.3668   -2.7965    0.0000 H   0  0  0  0  0  0  0  0  0  0  0  0
   23.3900   -3.1684    0.0000 H   0  0  0  0  0  0  0  0  0  0  0  0
   28.4384   -1.2285    0.0000 H   0  0  0  0  0  0  0  0  0  0  0  0
   18.6026   -1.1482    0.0000 H   0  0  0  0  0  0  0  0  0  0  0  0
   16.7805    1.4267    0.0000 H   0  0  0  0  0  0  0  0  0  0  0  0
   20.9353    4.3798    0.0000 H   0  0  0  0  0  0  0  0  0  0  0  0
   18.5416    5.3899    0.0000 H   0  0  0  0  0  0  0  0  0  0  0  0
   13.8383    1.6774    0.0000 H   0  0  0  0  0  0  0  0  0  0  0  0
   11.2942   -1.5168    0.0000 H   0  0  0  0  0  0  0  0  0  0  0  0
   13.2156   -1.6808    0.0000 H   0  0  0  0  0  0  0  0  0  0  0  0
   10.2591    1.6307    0.0000 H   0  0  0  0  0  0  0  0  0  0  0  0
   12.1805    1.4667    0.0000 H   0  0  0  0  0  0  0  0  0  0  0  0
    8.6610    2.1194    0.0000 H   0  0  0  0  0  0  0  0  0  0  0  0
    8.0383   -1.2389    0.0000 H   0  0  0  0  0  0  0  0  0  0  0  0
    5.6564   -2.5025    0.0000 H   0  0  0  0  0  0  0  0  0  0  0  0
    7.3475   -1.9327    0.0000 H   0  0  0  0  0  0  0  0  0  0  0  0
    3.4367    0.1680    0.0000 H   0  0  0  0  0  0  0  0  0  0  0  0
    4.5854    0.8080    0.0000 H   0  0  0  0  0  0  0  0  0  0  0  0
    2.9777   -3.1135    0.0000 H   0  0  0  0  0  0  0  0  0  0  0  0
    4.7256   -2.7540    0.0000 H   0  0  0  0  0  0  0  0  0  0  0  0
    1.4290   -0.0571    0.0000 H   0  0  0  0  0  0  0  0  0  0  0  0
   -1.4075   -3.1081    0.0000 H   0  0  0  0  0  0  0  0  0  0  0  0
    0.4335   -4.9414    0.0000 H   0  0  0  0  0  0  0  0  0  0  0  0
    2.9417   -4.2636    0.0000 H   0  0  0  0  0  0  0  0  0  0  0  0
    4.1012   -1.2103    0.0000 H   0  0  0  0  0  0  0  0  0  0  0  0
    4.5362    1.9927    0.0000 H   0  0  0  0  0  0  0  0  0  0  0  0
    1.2626    3.1514    0.0000 H   0  0  0  0  0  0  0  0  0  0  0  0
    1.2090    1.5184    0.0000 H   0  0  0  0  0  0  0  0  0  0  0  0
    4.3043    4.5804    0.0000 H   0  0  0  0  0  0  0  0  0  0  0  0
    4.4501    2.9530    0.0000 H   0  0  0  0  0  0  0  0  0  0  0  0
    1.0307    5.7391    0.0000 H   0  0  0  0  0  0  0  0  0  0  0  0
    1.0811    3.9554    0.0000 H   0  0  0  0  0  0  0  0  0  0  0  0
    3.9507    7.3050    0.0000 H   0  0  0  0  0  0  0  0  0  0  0  0
    4.2182    5.5408    0.0000 H   0  0  0  0  0  0  0  0  0  0  0  0
    2.6604    8.8298    0.0000 H   0  0  0  0  0  0  0  0  0  0  0  0
    0.5353    7.3351    0.0000 H   0  0  0  0  0  0  0  0  0  0  0  0
    0.7119    2.7866    0.0000 H   0  0  0  0  0  0  0  0  0  0  0  0
    0.2723   -0.5760    0.0000 H   0  0  0  0  0  0  0  0  0  0  0  0
   -2.2801   -1.7728    0.0000 H   0  0  0  0  0  0  0  0  0  0  0  0
   -0.3232   -1.1134    0.0000 H   0  0  0  0  0  0  0  0  0  0  0  0
   -3.4881   -0.5960    0.0000 H   0  0  0  0  0  0  0  0  0  0  0  0
   -3.0842    3.1221    0.0000 H   0  0  0  0  0  0  0  0  0  0  0  0
   -3.5769    4.3341    0.0000 H   0  0  0  0  0  0  0  0  0  0  0  0
   -3.7246    4.9412    0.0000 H   0  0  0  0  0  0  0  0  0  0  0  0
   -4.3915    5.8671    0.0000 H   0  0  0  0  0  0  0  0  0  0  0  0
   -4.7895    6.3276    0.0000 H   0  0  0  0  0  0  0  0  0  0  0  0
   -5.9626    7.2146    0.0000 H   0  0  0  0  0  0  0  0  0  0  0  0
   -6.8394    7.8997    0.0000 H   0  0  0  0  0  0  0  0  0  0  0  0
   -2.7802    3.9590    0.0000 H   0  0  0  0  0  0  0  0  0  0  0  0
   -1.7607    3.1285    0.0000 H   0  0  0  0  0  0  0  0  0  0  0  0
   -2.2650    1.2673    0.0000 H   0  0  0  0  0  0  0  0  0  0  0  0
   -4.2922   -2.1014    0.0000 H   0  0  0  0  0  0  0  0  0  0  0  0
   -4.9841   -2.4879    0.0000 H   0  0  0  0  0  0  0  0  0  0  0  0
   -6.9391   -5.0099    0.0000 H   0  0  0  0  0  0  0  0  0  0  0  0
   -7.8320   -3.8332    0.0000 H   0  0  0  0  0  0  0  0  0  0  0  0
   -3.5100   -4.4619    0.0000 H   0  0  0  0  0  0  0  0  0  0  0  0
   -4.2439   -3.0021    0.0000 H   0  0  0  0  0  0  0  0  0  0  0  0
   -5.3255   -7.2336    0.0000 H   0  0  0  0  0  0  0  0  0  0  0  0
   -6.4042   -5.8121    0.0000 H   0  0  0  0  0  0  0  0  0  0  0  0
   -2.3116   -5.6266    0.0000 H   0  0  0  0  0  0  0  0  0  0  0  0
   -2.0218  -10.1173    0.0000 H   0  0  0  0  0  0  0  0  0  0  0  0
   -4.6145  -10.2846    0.0000 H   0  0  0  0  0  0  0  0  0  0  0  0
   -6.0557   -8.1229    0.0000 H   0  0  0  0  0  0  0  0  0  0  0  0
   -9.1808   -4.6199    0.0000 H   0  0  0  0  0  0  0  0  0  0  0  0
  -10.0975   -4.3160    0.0000 H   0  0  0  0  0  0  0  0  0  0  0  0
  -13.2882   -4.3600    0.0000 H   0  0  0  0  0  0  0  0  0  0  0  0
  -12.9249   -2.9282    0.0000 H   0  0  0  0  0  0  0  0  0  0  0  0
  -10.0754   -5.0360    0.0000 H   0  0  0  0  0  0  0  0  0  0  0  0
  -12.4949   -7.9334    0.0000 H   0  0  0  0  0  0  0  0  0  0  0  0
  -14.0207   -7.0080    0.0000 H   0  0  0  0  0  0  0  0  0  0  0  0
  -13.5819   -5.2784    0.0000 H   0  0  0  0  0  0  0  0  0  0  0  0
  -11.2528   -8.1021    0.0000 H   0  0  0  0  0  0  0  0  0  0  0  0
   -9.5355   -7.6173    0.0000 H   0  0  0  0  0  0  0  0  0  0  0  0
   -9.6116   -5.6905    0.0000 H   0  0  0  0  0  0  0  0  0  0  0  0
  -14.2530   -2.4952    0.0000 H   0  0  0  0  0  0  0  0  0  0  0  0
  -14.8737   -1.3665    0.0000 H   0  0  0  0  0  0  0  0  0  0  0  0
  -16.8376    0.8549    0.0000 H   0  0  0  0  0  0  0  0  0  0  0  0
  -15.3928    1.6179    0.0000 H   0  0  0  0  0  0  0  0  0  0  0  0
  -18.4894    0.6018    0.0000 H   0  0  0  0  0  0  0  0  0  0  0  0
  -20.3841   -1.7243    0.0000 H   0  0  0  0  0  0  0  0  0  0  0  0
  -19.3170   -4.5281    0.0000 H   0  0  0  0  0  0  0  0  0  0  0  0
  -16.3553   -5.0059    0.0000 H   0  0  0  0  0  0  0  0  0  0  0  0
  -14.5008   -2.8586    0.0000 H   0  0  0  0  0  0  0  0  0  0  0  0
  -15.8597    3.1079    0.0000 H   0  0  0  0  0  0  0  0  0  0  0  0
  -13.3233    6.9236    0.0000 H   0  0  0  0  0  0  0  0  0  0  0  0
  -14.3526    6.1160    0.0000 H   0  0  0  0  0  0  0  0  0  0  0  0
  -11.8552    7.8501    0.0000 H   0  0  0  0  0  0  0  0  0  0  0  0
  -12.8937    7.3773    0.0000 H   0  0  0  0  0  0  0  0  0  0  0  0
   -9.8224    8.2401    0.0000 H   0  0  0  0  0  0  0  0  0  0  0  0
  -11.2811    8.0523    0.0000 H   0  0  0  0  0  0  0  0  0  0  0  0
   -8.7212    8.3997    0.0000 H   0  0  0  0  0  0  0  0  0  0  0  0
  -16.3929    5.2277    0.0000 H   0  0  0  0  0  0  0  0  0  0  0  0
  -16.7450    3.4783    0.0000 H   0  0  0  0  0  0  0  0  0  0  0  0
  -15.3576    2.6154    0.0000 H   0  0  0  0  0  0  0  0  0  0  0  0
  -14.6024    8.1537    0.0000 H   0  0  0  0  0  0  0  0  0  0  0  0
  1  2  1  0
  2  3  1  0
  3  4  2  0
  4  5  1  0
  5  6  2  0
  6  7  1  0
  7  8  2  0
  7  9  1  0
  9 10  1  0
 10 11  1  0
 11 12  2  0
  9 13  1  0
 13 14  1  0
 14 15  2  0
 15 16  1  0
 16 17  2  0
 17 18  1  0
 16 19  1  0
 14 20  1  0
 20 21  1  0
 21 22  2  0
 22 23  1  0
 23 24  2  0
 24 25  1  0
 25 26  2  0
 25 27  1  0
  1 28  2  0
  1 29  1  0
 29 30  1  0
 30 31  1  0
 31 32  1  0
 32 33  2  0
 32 34  1  0
 34 35  1  0
 35 36  1  0
 36 37  1  0
 37 38  1  0
 38 39  1  0
 39 40  1  0
 40 41  2  3
 40 42  1  0
 35 43  1  0
 43 44  2  0
 43 45  1  0
 45 46  1  0
 46 47  1  0
 47 48  1  0
 48 49  1  0
 49 50  1  0
 50 51  1  0
 46 52  1  0
 52 53  2  0
 52 54  1  0
 54 55  1  0
 55 56  1  0
 56 57  1  0
 57 58  2  0
 58 59  1  0
 58 60  1  0
 60 61  1  0
 60 62  2  0
 62 63  1  0
 62 64  1  0
 64 65  1  0
 64 66  2  0
 66 67  1  0
 55 68  1  0
 68 69  2  0
 68 70  1  0
 71 70  1  6
 71 72  1  0
 72 73  1  0
 73 74  1  0
 74 75  1  0
 71 76  1  0
 71 77  1  0
 77 78  2  0
 77 79  1  0
 79 80  1  0
 80 81  1  0
 81 82  1  0
 82 83  1  0
 83 84  1  0
 84 85  1  0
 85 86  2  3
 85 87  1  0
 80 88  1  0
 88 89  2  0
 88 90  1  0
 90 91  1  0
 91 92  1  0
 92 93  1  0
 93 94  1  0
 93 95  1  0
 91 96  1  0
 96 97  2  0
 96 98  1  0
 98 99  1  0
 99100  1  0
100101  1  0
101102  2  0
102103  1  0
103104  2  0
104105  1  0
105106  2  0
 99107  1  0
107108  2  0
107109  1  0
109110  1  0
110111  1  0
111112  1  0
112113  1  0
113114  1  0
110115  1  0
110116  1  6
116117  2  0
116118  1  0
  8  3  1  0
 66 57  1  0
106101  1  0
 11  6  1  0
 75114  2  0
 18 13  2  0
 22  9  1  0
 26 21  1  0
  2119  1  0
  4120  1  0
  5121  1  0
  8122  1  0
 15123  1  0
 17124  1  0
 18125  1  0
 19126  1  0
 23127  1  0
 24128  1  0
 26129  1  0
 27130  1  0
 29131  1  0
 30132  1  0
 30133  1  0
 31134  1  0
 31135  1  0
 34136  1  0
 35137  1  1
 36138  1  0
 36139  1  0
 37140  1  0
 37141  1  0
 38142  1  0
 38143  1  0
 39144  1  0
 41145  1  0
 42146  1  0
 42147  1  0
 45148  1  0
 46149  1  6
 47150  1  0
 47151  1  0
 48152  1  0
 48153  1  0
 49154  1  0
 49155  1  0
 50156  1  0
 50157  1  0
 51158  1  0
 51159  1  0
 54160  1  0
 55161  1  6
 56162  1  0
 56163  1  0
 70164  1  0
 72165  1  0
 72166  1  0
 73167  1  0
 73168  1  0
 74169  1  0
 74170  1  0
 75171  1  0
 76172  1  0
 76173  1  0
 76174  1  0
 79175  1  0
 80176  1  1
 81177  1  0
 81178  1  0
 82179  1  0
 82180  1  0
 83181  1  0
 83182  1  0
 84183  1  0
 86184  1  0
 87185  1  0
 87186  1  0
 90187  1  0
 91188  1  1
 92189  1  0
 92190  1  0
 93191  1  0
 94192  1  0
 94193  1  0
 94194  1  0
 95195  1  0
 95196  1  0
 95197  1  0
 98198  1  0
 99199  1  1
100200  1  0
100201  1  0
102202  1  0
103203  1  0
104204  1  0
105205  1  0
106206  1  0
109207  1  0
111208  1  0
111209  1  0
112210  1  0
112211  1  0
113212  1  0
113213  1  0
114214  1  0
115215  1  0
115216  1  0
115217  1  0
118218  1  0
M  END
