
     RDKit          2D

311318  0  0  0  0  0  0  0  0999 V2000
   21.6465   -2.7472    0.0000 C   0  0  0  0  0  0  0  0  0  0  0  0
   23.1415   -2.6255    0.0000 N   0  0  0  0  0  0  0  0  0  0  0  0
   23.9944   -3.8594    0.0000 C   0  0  0  0  0  0  0  0  0  0  0  0
   23.3523   -5.2150    0.0000 C   0  0  0  0  0  0  0  0  0  0  0  0
   24.2053   -6.4489    0.0000 C   0  0  0  0  0  0  0  0  0  0  0  0
   25.7003   -6.3272    0.0000 C   0  0  0  0  0  0  0  0  0  0  0  0
   26.3424   -4.9716    0.0000 C   0  0  0  0  0  0  0  0  0  0  0  0
   25.4895   -3.7377    0.0000 C   0  0  0  0  0  0  0  0  0  0  0  0
   27.8301   -5.1633    0.0000 C   0  0  0  0  0  0  0  0  0  0  0  0
   28.1075   -6.6375    0.0000 O   0  0  0  0  0  0  0  0  0  0  0  0
   26.7912   -7.3568    0.0000 C   0  0  0  0  0  0  0  0  0  0  0  0
   26.5994   -8.8445    0.0000 O   0  0  0  0  0  0  0  0  0  0  0  0
   29.2896   -5.5096    0.0000 C   0  0  0  0  0  0  0  0  0  0  0  0
   30.3192   -4.4187    0.0000 C   0  0  0  0  0  0  0  0  0  0  0  0
   31.7787   -4.7650    0.0000 C   0  0  0  0  0  0  0  0  0  0  0  0
   32.2086   -6.2020    0.0000 C   0  0  0  0  0  0  0  0  0  0  0  0
   31.1790   -7.2929    0.0000 C   0  0  0  0  0  0  0  0  0  0  0  0
   29.7195   -6.9466    0.0000 C   0  0  0  0  0  0  0  0  0  0  0  0
   33.6681   -6.5483    0.0000 O   0  0  0  0  0  0  0  0  0  0  0  0
   29.8893   -2.9817    0.0000 O   0  0  0  0  0  0  0  0  0  0  0  0
   28.4298   -2.6354    0.0000 C   0  0  0  0  0  0  0  0  0  0  0  0
   27.4002   -3.7263    0.0000 C   0  0  0  0  0  0  0  0  0  0  0  0
   26.4212   -2.8710    0.0000 C   0  0  0  0  0  0  0  0  0  0  0  0
   26.1919   -2.1045    0.0000 C   0  0  0  0  0  0  0  0  0  0  0  0
   26.7410   -1.5227    0.0000 C   0  0  0  0  0  0  0  0  0  0  0  0
   27.5194   -1.7074    0.0000 C   0  0  0  0  0  0  0  0  0  0  0  0
   26.1105    0.5850    0.0000 O   0  0  0  0  0  0  0  0  0  0  0  0
   21.0043   -4.1028    0.0000 S   0  0  0  0  0  0  0  0  0  0  0  0
   20.7935   -1.5133    0.0000 N   0  0  0  0  0  0  0  0  0  0  0  0
   19.2985   -1.6351    0.0000 C   0  0  0  0  0  0  0  0  0  0  0  0
   18.4455   -0.4012    0.0000 C   0  0  0  0  0  0  0  0  0  0  0  0
   16.9505   -0.5229    0.0000 C   0  0  0  0  0  0  0  0  0  0  0  0
   16.7937   -1.3045    0.0000 O   0  0  0  0  0  0  0  0  0  0  0  0
   16.0975    0.7110    0.0000 N   0  0  0  0  0  0  0  0  0  0  0  0
   14.6025    0.5893    0.0000 C   0  0  0  0  0  0  0  0  0  0  0  0
   14.9820   -0.8619    0.0000 C   0  0  0  0  0  0  0  0  0  0  0  0
   16.4285   -1.2589    0.0000 C   0  0  0  0  0  0  0  0  0  0  0  0
   16.8080   -2.7101    0.0000 C   0  0  0  0  0  0  0  0  0  0  0  0
   18.1953   -3.2804    0.0000 O   0  0  0  0  0  0  0  0  0  0  0  0
   15.7409   -3.7643    0.0000 O   0  0  0  0  0  0  0  0  0  0  0  0
   13.1559    0.9862    0.0000 C   0  0  0  0  0  0  0  0  0  0  0  0
   12.0889   -0.0680    0.0000 O   0  0  0  0  0  0  0  0  0  0  0  0
   12.7765    2.4374    0.0000 N   0  0  0  0  0  0  0  0  0  0  0  0
   11.3299    2.8344    0.0000 C   0  0  0  0  0  0  0  0  0  0  0  0
   11.9721    4.1900    0.0000 C   0  0  0  0  0  0  0  0  0  0  0  0
   13.4671    4.3117    0.0000 C   0  0  0  0  0  0  0  0  0  0  0  0
   14.1092    5.6674    0.0000 N   0  0  0  0  0  0  0  0  0  0  0  0
   14.4641    3.1910    0.0000 O   0  0  0  0  0  0  0  0  0  0  0  0
    9.8349    2.7127    0.0000 C   0  0  0  0  0  0  0  0  0  0  0  0
    8.9819    3.9466    0.0000 O   0  0  0  0  0  0  0  0  0  0  0  0
    9.1928    1.3571    0.0000 N   0  0  0  0  0  0  0  0  0  0  0  0
    9.9121    0.0408    0.0000 C   0  0  0  0  0  0  0  0  0  0  0  0
    8.8825   -1.0501    0.0000 C   0  0  0  0  0  0  0  0  0  0  0  0
    7.5269   -0.4080    0.0000 C   0  0  0  0  0  0  0  0  0  0  0  0
    7.7186    1.0797    0.0000 C   0  0  0  0  0  0  0  0  0  0  0  0
    6.2191    1.1150    0.0000 C   0  0  0  0  0  0  0  0  0  0  0  0
    5.6007   -0.2517    0.0000 O   0  0  0  0  0  0  0  0  0  0  0  0
    5.4998    2.4312    0.0000 N   0  0  0  0  0  0  0  0  0  0  0  0
    4.0002    2.4665    0.0000 C   0  0  0  0  0  0  0  0  0  0  0  0
    4.2259    0.9835    0.0000 C   0  0  0  0  0  0  0  0  0  0  0  0
    5.6230    0.4376    0.0000 C   0  0  0  0  0  0  0  0  0  0  0  0
    5.8487   -1.0454    0.0000 C   0  0  0  0  0  0  0  0  0  0  0  0
    7.1688   -1.7576    0.0000 O   0  0  0  0  0  0  0  0  0  0  0  0
    4.6773   -1.9823    0.0000 O   0  0  0  0  0  0  0  0  0  0  0  0
    2.6031    3.0124    0.0000 C   0  0  0  0  0  0  0  0  0  0  0  0
    1.6932    1.8199    0.0000 O   0  0  0  0  0  0  0  0  0  0  0  0
    2.3774    4.4954    0.0000 N   0  0  0  0  0  0  0  0  0  0  0  0
    0.9802    5.0414    0.0000 C   0  0  0  0  0  0  0  0  0  0  0  0
    1.1115    3.5471    0.0000 C   0  0  0  0  0  0  0  0  0  0  0  0
    0.9575    2.0550    0.0000 C   0  0  0  0  0  0  0  0  0  0  0  0
    0.5240    0.6190    0.0000 C   0  0  0  0  0  0  0  0  0  0  0  0
   -0.1735   -0.7089    0.0000 C   0  0  0  0  0  0  0  0  0  0  0  0
   -1.1097   -1.8809    0.0000 C   0  0  0  0  0  0  0  0  0  0  0  0
   -2.2508   -2.8546    0.0000 C   0  0  0  0  0  0  0  0  0  0  0  0
   -3.5555   -3.5946    0.0000 C   0  0  0  0  0  0  0  0  0  0  0  0
    2.0899    6.0507    0.0000 C   0  0  0  0  0  0  0  0  0  0  0  0
    0.5686    6.4838    0.0000 C   0  0  0  0  0  0  0  0  0  0  0  0
    1.8883    7.1968    0.0000 O   0  0  0  0  0  0  0  0  0  0  0  0
   -0.1085    7.8222    0.0000 N   0  0  0  0  0  0  0  0  0  0  0  0
   -1.0268    9.0083    0.0000 C   0  0  0  0  0  0  0  0  0  0  0  0
   -0.6390   10.4573    0.0000 C   0  0  0  0  0  0  0  0  0  0  0  0
    0.8463   10.6665    0.0000 C   0  0  0  0  0  0  0  0  0  0  0  0
   -0.7702   11.9516    0.0000 C   0  0  0  0  0  0  0  0  0  0  0  0
    0.4582   12.8123    0.0000 C   0  0  0  0  0  0  0  0  0  0  0  0
   -2.1529    9.9992    0.0000 C   0  0  0  0  0  0  0  0  0  0  0  0
   -1.2735   11.2144    0.0000 O   0  0  0  0  0  0  0  0  0  0  0  0
   -3.4462   10.7591    0.0000 N   0  0  0  0  0  0  0  0  0  0  0  0
   -4.8599   11.2605    0.0000 C   0  0  0  0  0  0  0  0  0  0  0  0
   -5.3171   12.6891    0.0000 C   0  0  0  0  0  0  0  0  0  0  0  0
   -4.3084   13.7993    0.0000 C   0  0  0  0  0  0  0  0  0  0  0  0
   -4.7656   15.2280    0.0000 C   0  0  0  0  0  0  0  0  0  0  0  0
   -2.9809   14.4977    0.0000 C   0  0  0  0  0  0  0  0  0  0  0  0
   -6.3430   11.4852    0.0000 C   0  0  0  0  0  0  0  0  0  0  0  0
   -6.4434   12.9819    0.0000 O   0  0  0  0  0  0  0  0  0  0  0  0
   -7.8418   11.4253    0.0000 N   0  0  0  0  0  0  0  0  0  0  0  0
   -9.3021   11.0828    0.0000 C   0  0  0  0  0  0  0  0  0  0  0  0
  -10.4591   12.0374    0.0000 C   0  0  0  0  0  0  0  0  0  0  0  0
  -10.2108   13.5167    0.0000 C   0  0  0  0  0  0  0  0  0  0  0  0
  -11.3678   14.4714    0.0000 O   0  0  0  0  0  0  0  0  0  0  0  0
   -8.8056   14.0414    0.0000 O   0  0  0  0  0  0  0  0  0  0  0  0
  -10.6713   10.4700    0.0000 C   0  0  0  0  0  0  0  0  0  0  0  0
  -11.5649   11.6748    0.0000 O   0  0  0  0  0  0  0  0  0  0  0  0
  -11.8997    9.6093    0.0000 N   0  0  0  0  0  0  0  0  0  0  0  0
  -12.9431    8.5316    0.0000 C   0  0  0  0  0  0  0  0  0  0  0  0
  -14.4325    8.7092    0.0000 C   0  0  0  0  0  0  0  0  0  0  0  0
  -15.0235   10.0879    0.0000 C   0  0  0  0  0  0  0  0  0  0  0  0
  -16.5129   10.2655    0.0000 C   0  0  0  0  0  0  0  0  0  0  0  0
  -17.1038   11.6442    0.0000 O   0  0  0  0  0  0  0  0  0  0  0  0
  -17.4114    9.0644    0.0000 O   0  0  0  0  0  0  0  0  0  0  0  0
  -13.7636    7.2759    0.0000 C   0  0  0  0  0  0  0  0  0  0  0  0
  -15.1667    7.8063    0.0000 O   0  0  0  0  0  0  0  0  0  0  0  0
  -14.3317    5.8877    0.0000 N   0  0  0  0  0  0  0  0  0  0  0  0
  -14.6268    4.4170    0.0000 C   0  0  0  0  0  0  0  0  0  0  0  0
  -15.9758    3.7611    0.0000 C   0  0  0  0  0  0  0  0  0  0  0  0
  -17.2183    4.6015    0.0000 C   0  0  0  0  0  0  0  0  0  0  0  0
  -18.6285    4.0903    0.0000 C   0  0  0  0  0  0  0  0  0  0  0  0
  -19.5505    5.2734    0.0000 N   0  0  0  0  0  0  0  0  0  0  0  0
  -18.7101    6.5159    0.0000 C   0  0  0  0  0  0  0  0  0  0  0  0
  -17.2688    6.1006    0.0000 N   0  0  0  0  0  0  0  0  0  0  0  0
  -14.6382    2.9170    0.0000 C   0  0  0  0  0  0  0  0  0  0  0  0
  -16.1054    2.6046    0.0000 O   0  0  0  0  0  0  0  0  0  0  0  0
  -14.3656    1.4420    0.0000 N   0  0  0  0  0  0  0  0  0  0  0  0
  -13.8187    0.0453    0.0000 C   0  0  0  0  0  0  0  0  0  0  0  0
  -14.5990   -1.2358    0.0000 C   0  0  0  0  0  0  0  0  0  0  0  0
  -16.0986   -1.2006    0.0000 C   0  0  0  0  0  0  0  0  0  0  0  0
  -13.0174   -1.2228    0.0000 C   0  0  0  0  0  0  0  0  0  0  0  0
  -14.0827   -2.2787    0.0000 O   0  0  0  0  0  0  0  0  0  0  0  0
  -11.9906   -2.3162    0.0000 N   0  0  0  0  0  0  0  0  0  0  0  0
  -10.7754   -3.1956    0.0000 C   0  0  0  0  0  0  0  0  0  0  0  0
   -9.4157   -3.8291    0.0000 C   0  0  0  0  0  0  0  0  0  0  0  0
   -7.9607   -4.1938    0.0000 C   0  0  0  0  0  0  0  0  0  0  0  0
   -6.4630   -4.2766    0.0000 C   0  0  0  0  0  0  0  0  0  0  0  0
   -4.9767   -4.0744    0.0000 C   0  0  0  0  0  0  0  0  0  0  0  0
  -12.1029   -3.8939    0.0000 C   0  0  0  0  0  0  0  0  0  0  0  0
  -10.7392   -4.6951    0.0000 C   0  0  0  0  0  0  0  0  0  0  0  0
   -9.6354   -5.7109    0.0000 O   0  0  0  0  0  0  0  0  0  0  0  0
  -12.0198   -5.4763    0.0000 N   0  0  0  0  0  0  0  0  0  0  0  0
  -11.9836   -6.9758    0.0000 C   0  0  0  0  0  0  0  0  0  0  0  0
  -11.4367   -8.3726    0.0000 C   0  0  0  0  0  0  0  0  0  0  0  0
  -12.3729   -9.5446    0.0000 C   0  0  0  0  0  0  0  0  0  0  0  0
  -11.8260  -10.9413    0.0000 C   0  0  0  0  0  0  0  0  0  0  0  0
  -12.7622  -12.1133    0.0000 N   0  0  0  0  0  0  0  0  0  0  0  0
  -12.2153  -13.5101    0.0000 C   0  0  0  0  0  0  0  0  0  0  0  0
  -13.2874  -14.5592    0.0000 N   0  0  0  0  0  0  0  0  0  0  0  0
  -10.7323  -13.7348    0.0000 N   0  0  0  0  0  0  0  0  0  0  0  0
  -13.2642   -7.7569    0.0000 C   0  0  0  0  0  0  0  0  0  0  0  0
  -14.5809   -7.0385    0.0000 O   0  0  0  0  0  0  0  0  0  0  0  0
  -13.2280   -9.2565    0.0000 N   0  0  0  0  0  0  0  0  0  0  0  0
  -14.5086  -10.0376    0.0000 C   0  0  0  0  0  0  0  0  0  0  0  0
  -15.9791  -10.3336    0.0000 C   0  0  0  0  0  0  0  0  0  0  0  0
  -16.9707   -9.2081    0.0000 C   0  0  0  0  0  0  0  0  0  0  0  0
  -14.4724  -11.5372    0.0000 C   0  0  0  0  0  0  0  0  0  0  0  0
  -13.3686  -12.5529    0.0000 O   0  0  0  0  0  0  0  0  0  0  0  0
  -15.7530  -12.3183    0.0000 N   0  0  0  0  0  0  0  0  0  0  0  0
  -15.7168  -13.8178    0.0000 C   0  0  0  0  0  0  0  0  0  0  0  0
  -15.1699  -15.2146    0.0000 C   0  0  0  0  0  0  0  0  0  0  0  0
  -16.1061  -16.3866    0.0000 C   0  0  0  0  0  0  0  0  0  0  0  0
  -15.5592  -17.7833    0.0000 S   0  0  0  0  0  0  0  0  0  0  0  0
  -16.4954  -18.9553    0.0000 C   0  0  0  0  0  0  0  0  0  0  0  0
  -16.9974  -14.5989    0.0000 C   0  0  0  0  0  0  0  0  0  0  0  0
  -17.1442  -16.0917    0.0000 O   0  0  0  0  0  0  0  0  0  0  0  0
  -18.3141  -13.8805    0.0000 O   0  0  0  0  0  0  0  0  0  0  0  0
   23.6136   -1.2017    0.0000 H   0  0  0  0  0  0  0  0  0  0  0  0
   21.8573   -5.3367    0.0000 H   0  0  0  0  0  0  0  0  0  0  0  0
   23.5632   -7.8045    0.0000 H   0  0  0  0  0  0  0  0  0  0  0  0
   25.7845   -2.2670    0.0000 H   0  0  0  0  0  0  0  0  0  0  0  0
   32.8083   -3.6741    0.0000 H   0  0  0  0  0  0  0  0  0  0  0  0
   31.6089   -8.7300    0.0000 H   0  0  0  0  0  0  0  0  0  0  0  0
   28.6899   -8.0375    0.0000 H   0  0  0  0  0  0  0  0  0  0  0  0
   34.0980   -7.9853    0.0000 H   0  0  0  0  0  0  0  0  0  0  0  0
   24.9111   -4.4709    0.0000 H   0  0  0  0  0  0  0  0  0  0  0  0
   24.1044   -1.4214    0.0000 H   0  0  0  0  0  0  0  0  0  0  0  0
   29.0295   -0.1075    0.0000 H   0  0  0  0  0  0  0  0  0  0  0  0
   27.1401    1.6758    0.0000 H   0  0  0  0  0  0  0  0  0  0  0  0
   21.4356   -0.1577    0.0000 H   0  0  0  0  0  0  0  0  0  0  0  0
   19.6779   -3.0863    0.0000 H   0  0  0  0  0  0  0  0  0  0  0  0
   18.0216   -2.4223    0.0000 H   0  0  0  0  0  0  0  0  0  0  0  0
   19.8088    0.2246    0.0000 H   0  0  0  0  0  0  0  0  0  0  0  0
   18.0660    1.0500    0.0000 H   0  0  0  0  0  0  0  0  0  0  0  0
   16.7396    2.0666    0.0000 H   0  0  0  0  0  0  0  0  0  0  0  0
   14.7422    2.0828    0.0000 H   0  0  0  0  0  0  0  0  0  0  0  0
   14.8422   -2.3554    0.0000 H   0  0  0  0  0  0  0  0  0  0  0  0
   13.4869   -0.9836    0.0000 H   0  0  0  0  0  0  0  0  0  0  0  0
   17.9235   -1.1371    0.0000 H   0  0  0  0  0  0  0  0  0  0  0  0
   16.9254    0.1564    0.0000 H   0  0  0  0  0  0  0  0  0  0  0  0
   16.1204   -5.2155    0.0000 H   0  0  0  0  0  0  0  0  0  0  0  0
   13.9640    3.3538    0.0000 H   0  0  0  0  0  0  0  0  0  0  0  0
   11.3733    1.3350    0.0000 H   0  0  0  0  0  0  0  0  0  0  0  0
   12.1118    5.6835    0.0000 H   0  0  0  0  0  0  0  0  0  0  0  0
   10.5255    4.5870    0.0000 H   0  0  0  0  0  0  0  0  0  0  0  0
   15.6043    5.7891    0.0000 H   0  0  0  0  0  0  0  0  0  0  0  0
   13.2563    6.9012    0.0000 H   0  0  0  0  0  0  0  0  0  0  0  0
   11.2407    0.7369    0.0000 H   0  0  0  0  0  0  0  0  0  0  0  0
   10.8893   -1.0972    0.0000 H   0  0  0  0  0  0  0  0  0  0  0  0
   10.0750   -1.9600    0.0000 H   0  0  0  0  0  0  0  0  0  0  0  0
    8.1022   -2.3311    0.0000 H   0  0  0  0  0  0  0  0  0  0  0  0
    7.2062   -1.8733    0.0000 H   0  0  0  0  0  0  0  0  0  0  0  0
    6.0402   -0.6079    0.0000 H   0  0  0  0  0  0  0  0  0  0  0  0
    7.5969    2.5748    0.0000 H   0  0  0  0  0  0  0  0  0  0  0  0
    6.2801    3.7123    0.0000 H   0  0  0  0  0  0  0  0  0  0  0  0
    4.2953    3.9372    0.0000 H   0  0  0  0  0  0  0  0  0  0  0  0
    3.9308   -0.4871    0.0000 H   0  0  0  0  0  0  0  0  0  0  0  0
    2.7263    1.0188    0.0000 H   0  0  0  0  0  0  0  0  0  0  0  0
    7.1226    0.4023    0.0000 H   0  0  0  0  0  0  0  0  0  0  0  0
    6.2652    1.7931    0.0000 H   0  0  0  0  0  0  0  0  0  0  0  0
    4.9030   -3.4652    0.0000 H   0  0  0  0  0  0  0  0  0  0  0  0
    3.6542    5.2825    0.0000 H   0  0  0  0  0  0  0  0  0  0  0  0
    2.5430    3.9951    0.0000 H   0  0  0  0  0  0  0  0  0  0  0  0
    2.2729    2.5979    0.0000 H   0  0  0  0  0  0  0  0  0  0  0  0
    2.4574    2.0411    0.0000 H   0  0  0  0  0  0  0  0  0  0  0  0
    2.0516    1.0289    0.0000 H   0  0  0  0  0  0  0  0  0  0  0  0
    2.0031    0.8683    0.0000 H   0  0  0  0  0  0  0  0  0  0  0  0
    1.5456   -0.4793    0.0000 H   0  0  0  0  0  0  0  0  0  0  0  0
    1.3106   -0.9267    0.0000 H   0  0  0  0  0  0  0  0  0  0  0  0
    0.6218   -1.9807    0.0000 H   0  0  0  0  0  0  0  0  0  0  0  0
    0.3064   -2.3756    0.0000 H   0  0  0  0  0  0  0  0  0  0  0  0
   -0.5695   -3.2803    0.0000 H   0  0  0  0  0  0  0  0  0  0  0  0
   -0.9539   -3.6083    0.0000 H   0  0  0  0  0  0  0  0  0  0  0  0
   -2.1670   -4.3522    0.0000 H   0  0  0  0  0  0  0  0  0  0  0  0
   -2.9428   -4.9638    0.0000 H   0  0  0  0  0  0  0  0  0  0  0  0
    3.5637    5.7720    0.0000 H   0  0  0  0  0  0  0  0  0  0  0  0
    2.9440    7.2838    0.0000 H   0  0  0  0  0  0  0  0  0  0  0  0
    1.1604    7.2281    0.0000 H   0  0  0  0  0  0  0  0  0  0  0  0
    1.2477    8.4630    0.0000 H   0  0  0  0  0  0  0  0  0  0  0  0
    0.4688    9.1229    0.0000 H   0  0  0  0  0  0  0  0  0  0  0  0
   -2.0574   10.9453    0.0000 H   0  0  0  0  0  0  0  0  0  0  0  0
    1.3934   12.2401    0.0000 H   0  0  0  0  0  0  0  0  0  0  0  0
    2.3041   10.7158    0.0000 H   0  0  0  0  0  0  0  0  0  0  0  0
    1.2986    9.4279    0.0000 H   0  0  0  0  0  0  0  0  0  0  0  0
   -1.4046   13.3108    0.0000 H   0  0  0  0  0  0  0  0  0  0  0  0
   -2.2556   11.7424    0.0000 H   0  0  0  0  0  0  0  0  0  0  0  0
    0.3270   14.3066    0.0000 H   0  0  0  0  0  0  0  0  0  0  0  0
    1.9070   13.2010    0.0000 H   0  0  0  0  0  0  0  0  0  0  0  0
    1.4026   11.6470    0.0000 H   0  0  0  0  0  0  0  0  0  0  0  0
   -2.8127   12.1188    0.0000 H   0  0  0  0  0  0  0  0  0  0  0  0
   -3.6636   12.1654    0.0000 H   0  0  0  0  0  0  0  0  0  0  0  0
   -6.2353   13.8752    0.0000 H   0  0  0  0  0  0  0  0  0  0  0  0
   -6.7741   12.3328    0.0000 H   0  0  0  0  0  0  0  0  0  0  0  0
   -3.1305   12.8707    0.0000 H   0  0  0  0  0  0  0  0  0  0  0  0
   -3.8999   16.4529    0.0000 H   0  0  0  0  0  0  0  0  0  0  0  0
   -5.6839   16.4141    0.0000 H   0  0  0  0  0  0  0  0  0  0  0  0
   -6.1684   14.6967    0.0000 H   0  0  0  0  0  0  0  0  0  0  0  0
   -2.7396   15.9781    0.0000 H   0  0  0  0  0  0  0  0  0  0  0  0
   -1.4946   14.6998    0.0000 H   0  0  0  0  0  0  0  0  0  0  0  0
   -2.5237   13.0690    0.0000 H   0  0  0  0  0  0  0  0  0  0  0  0
   -8.0439   12.9116    0.0000 H   0  0  0  0  0  0  0  0  0  0  0  0
   -8.9605   12.5433    0.0000 H   0  0  0  0  0  0  0  0  0  0  0  0
  -11.8012   12.7074    0.0000 H   0  0  0  0  0  0  0  0  0  0  0  0
  -11.4922   10.9499    0.0000 H   0  0  0  0  0  0  0  0  0  0  0  0
   -8.5573   15.5207    0.0000 H   0  0  0  0  0  0  0  0  0  0  0  0
  -12.7270   10.8605    0.0000 H   0  0  0  0  0  0  0  0  0  0  0  0
  -13.2693    9.9957    0.0000 H   0  0  0  0  0  0  0  0  0  0  0  0
  -15.9238    8.5472    0.0000 H   0  0  0  0  0  0  0  0  0  0  0  0
  -14.7137    7.2358    0.0000 H   0  0  0  0  0  0  0  0  0  0  0  0
  -15.1072   11.5856    0.0000 H   0  0  0  0  0  0  0  0  0  0  0  0
  -13.6894   10.7736    0.0000 H   0  0  0  0  0  0  0  0  0  0  0  0
  -18.9009    9.2420    0.0000 H   0  0  0  0  0  0  0  0  0  0  0  0
  -15.7677    6.3212    0.0000 H   0  0  0  0  0  0  0  0  0  0  0  0
  -15.8135    5.3345    0.0000 H   0  0  0  0  0  0  0  0  0  0  0  0
  -17.1428    2.8187    0.0000 H   0  0  0  0  0  0  0  0  0  0  0  0
  -15.4158    2.3696    0.0000 H   0  0  0  0  0  0  0  0  0  0  0  0
  -19.0438    2.6489    0.0000 H   0  0  0  0  0  0  0  0  0  0  0  0
  -21.0497    5.2230    0.0000 H   0  0  0  0  0  0  0  0  0  0  0  0
  -19.2214    7.9261    0.0000 H   0  0  0  0  0  0  0  0  0  0  0  0
  -15.8474    1.2093    0.0000 H   0  0  0  0  0  0  0  0  0  0  0  0
  -15.2860    0.3567    0.0000 H   0  0  0  0  0  0  0  0  0  0  0  0
  -15.0712   -2.6596    0.0000 H   0  0  0  0  0  0  0  0  0  0  0  0
  -13.3755   -2.1036    0.0000 H   0  0  0  0  0  0  0  0  0  0  0  0
  -16.8789   -2.4817    0.0000 H   0  0  0  0  0  0  0  0  0  0  0  0
  -17.4957   -0.6546    0.0000 H   0  0  0  0  0  0  0  0  0  0  0  0
  -16.1681    0.2978    0.0000 H   0  0  0  0  0  0  0  0  0  0  0  0
  -13.1113   -3.3131    0.0000 H   0  0  0  0  0  0  0  0  0  0  0  0
   -9.0964   -5.2947    0.0000 H   0  0  0  0  0  0  0  0  0  0  0  0
  -10.3256   -5.0216    0.0000 H   0  0  0  0  0  0  0  0  0  0  0  0
   -7.5423   -5.6343    0.0000 H   0  0  0  0  0  0  0  0  0  0  0  0
   -8.6284   -5.5370    0.0000 H   0  0  0  0  0  0  0  0  0  0  0  0
   -5.6218   -5.5185    0.0000 H   0  0  0  0  0  0  0  0  0  0  0  0
   -7.0376   -5.6622    0.0000 H   0  0  0  0  0  0  0  0  0  0  0  0
   -4.6342   -5.5348    0.0000 H   0  0  0  0  0  0  0  0  0  0  0  0
  -12.5228   -5.3339    0.0000 H   0  0  0  0  0  0  0  0  0  0  0  0
  -13.5892   -4.0961    0.0000 H   0  0  0  0  0  0  0  0  0  0  0  0
  -12.8922   -2.6184    0.0000 H   0  0  0  0  0  0  0  0  0  0  0  0
  -13.4143   -4.9237    0.0000 H   0  0  0  0  0  0  0  0  0  0  0  0
  -10.5131   -6.6798    0.0000 H   0  0  0  0  0  0  0  0  0  0  0  0
  -10.3153   -9.3688    0.0000 H   0  0  0  0  0  0  0  0  0  0  0  0
  -10.1561   -7.5915    0.0000 H   0  0  0  0  0  0  0  0  0  0  0  0
  -13.6535  -10.3257    0.0000 H   0  0  0  0  0  0  0  0  0  0  0  0
  -13.7769   -9.0165    0.0000 H   0  0  0  0  0  0  0  0  0  0  0  0
  -10.8344  -12.0668    0.0000 H   0  0  0  0  0  0  0  0  0  0  0  0
  -10.4598  -10.3221    0.0000 H   0  0  0  0  0  0  0  0  0  0  0  0
  -14.2556  -12.2541    0.0000 H   0  0  0  0  0  0  0  0  0  0  0  0
  -12.6047  -16.0788    0.0000 H   0  0  0  0  0  0  0  0  0  0  0  0
  -10.1854  -15.1316    0.0000 H   0  0  0  0  0  0  0  0  0  0  0  0
   -9.7961  -12.5628    0.0000 H   0  0  0  0  0  0  0  0  0  0  0  0
  -12.1242  -10.2722    0.0000 H   0  0  0  0  0  0  0  0  0  0  0  0
  -14.8811   -8.5846    0.0000 H   0  0  0  0  0  0  0  0  0  0  0  0
  -17.3453  -10.9528    0.0000 H   0  0  0  0  0  0  0  0  0  0  0  0
  -15.7864  -11.8212    0.0000 H   0  0  0  0  0  0  0  0  0  0  0  0
  -18.4412   -9.5042    0.0000 H   0  0  0  0  0  0  0  0  0  0  0  0
  -17.5175   -7.8114    0.0000 H   0  0  0  0  0  0  0  0  0  0  0  0
  -15.7949   -8.2768    0.0000 H   0  0  0  0  0  0  0  0  0  0  0  0
  -17.1475  -11.7657    0.0000 H   0  0  0  0  0  0  0  0  0  0  0  0
  -14.2463  -13.5218    0.0000 H   0  0  0  0  0  0  0  0  0  0  0  0
  -14.1783  -16.3401    0.0000 H   0  0  0  0  0  0  0  0  0  0  0  0
  -13.9941  -14.2832    0.0000 H   0  0  0  0  0  0  0  0  0  0  0  0
  -17.4723  -17.0058    0.0000 H   0  0  0  0  0  0  0  0  0  0  0  0
  -17.4352  -15.6913    0.0000 H   0  0  0  0  0  0  0  0  0  0  0  0
  -15.9485  -20.3521    0.0000 H   0  0  0  0  0  0  0  0  0  0  0  0
  -17.7760  -19.7364    0.0000 H   0  0  0  0  0  0  0  0  0  0  0  0
  -17.6168  -17.9591    0.0000 H   0  0  0  0  0  0  0  0  0  0  0  0
  -19.5947  -14.6616    0.0000 H   0  0  0  0  0  0  0  0  0  0  0  0
  1  2  1  0
  2  3  1  0
  3  4  2  0
  4  5  1  0
  5  6  2  0
  6  7  1  0
  7  8  2  0
  7  9  1  0
  9 10  1  0
 10 11  1  0
 11 12  2  0
  9 13  1  0
 13 14  1  0
 14 15  2  0
 15 16  1  0
 16 17  2  0
 17 18  1  0
 16 19  1  0
 14 20  1  0
 20 21  1  0
 21 22  2  0
 22 23  1  0
 23 24  2  0
 24 25  1  0
 25 26  2  0
 25 27  1  0
  1 28  2  0
  1 29  1  0
 29 30  1  0
 30 31  1  0
 31 32  1  0
 32 33  2  0
 32 34  1  0
 34 35  1  0
 35 36  1  0
 36 37  1  0
 37 38  1  0
 38 39  2  0
 38 40  1  0
 35 41  1  0
 41 42  2  0
 41 43  1  0
 43 44  1  0
 44 45  1  0
 45 46  1  0
 46 47  1  0
 46 48  2  0
 44 49  1  0
 49 50  2  0
 49 51  1  0
 51 52  1  0
 52 53  1  0
 53 54  1  0
 54 55  1  0
 55 56  1  0
 56 57  2  0
 56 58  1  0
 58 59  1  0
 59 60  1  0
 60 61  1  0
 61 62  1  0
 62 63  2  0
 62 64  1  0
 59 65  1  0
 65 66  2  0
 65 67  1  0
 68 67  1  6
 68 69  1  0
 69 70  1  0
 70 71  1  0
 71 72  1  0
 72 73  1  0
 73 74  1  0
 74 75  1  0
 68 76  1  0
 68 77  1  0
 77 78  2  0
 77 79  1  0
 79 80  1  0
 80 81  1  0
 81 82  1  0
 81 83  1  0
 83 84  1  0
 80 85  1  0
 85 86  2  0
 85 87  1  0
 87 88  1  0
 88 89  1  0
 89 90  1  0
 90 91  1  0
 90 92  1  0
 88 93  1  0
 93 94  2  0
 93 95  1  0
 95 96  1  0
 96 97  1  0
 97 98  1  0
 98 99  2  0
 98100  1  0
 96101  1  0
101102  2  0
101103  1  0
103104  1  0
104105  1  0
105106  1  0
106107  1  0
107108  2  0
107109  1  0
104110  1  0
110111  2  0
110112  1  0
112113  1  0
113114  1  0
114115  1  0
115116  2  0
116117  1  0
117118  1  0
118119  2  0
113120  1  0
120121  2  0
120122  1  0
122123  1  0
123124  1  0
124125  1  0
123126  1  0
126127  2  0
126128  1  0
128129  1  0
129130  1  0
130131  1  0
131132  1  0
132133  1  0
129134  1  0
129135  1  1
135136  2  0
135137  1  0
137138  1  0
138139  1  0
139140  1  0
140141  1  0
141142  1  0
142143  1  0
143144  2  3
143145  1  0
138146  1  0
146147  2  0
146148  1  0
148149  1  0
149150  1  0
150151  1  0
149152  1  0
152153  2  0
152154  1  0
154155  1  0
155156  1  0
156157  1  0
157158  1  0
158159  1  0
155160  1  0
160161  2  0
160162  1  0
  8  3  1  0
 55 51  1  0
119115  1  0
 11  6  1  0
 75133  2  0
 18 13  2  0
 22  9  1  0
 26 21  1  0
  2163  1  0
  4164  1  0
  5165  1  0
  8166  1  0
 15167  1  0
 17168  1  0
 18169  1  0
 19170  1  0
 23171  1  0
 24172  1  0
 26173  1  0
 27174  1  0
 29175  1  0
 30176  1  0
 30177  1  0
 31178  1  0
 31179  1  0
 34180  1  0
 35181  1  1
 36182  1  0
 36183  1  0
 37184  1  0
 37185  1  0
 40186  1  0
 43187  1  0
 44188  1  6
 45189  1  0
 45190  1  0
 47191  1  0
 47192  1  0
 52193  1  0
 52194  1  0
 53195  1  0
 53196  1  0
 54197  1  0
 54198  1  0
 55199  1  0
 58200  1  0
 59201  1  1
 60202  1  0
 60203  1  0
 61204  1  0
 61205  1  0
 64206  1  0
 67207  1  0
 69208  1  0
 69209  1  0
 70210  1  0
 70211  1  0
 71212  1  0
 71213  1  0
 72214  1  0
 72215  1  0
 73216  1  0
 73217  1  0
 74218  1  0
 74219  1  0
 75220  1  0
 76221  1  0
 76222  1  0
 76223  1  0
 79224  1  0
 80225  1  6
 81226  1  1
 82227  1  0
 82228  1  0
 82229  1  0
 83230  1  0
 83231  1  0
 84232  1  0
 84233  1  0
 84234  1  0
 87235  1  0
 88236  1  6
 89237  1  0
 89238  1  0
 90239  1  0
 91240  1  0
 91241  1  0
 91242  1  0
 92243  1  0
 92244  1  0
 92245  1  0
 95246  1  0
 96247  1  6
 97248  1  0
 97249  1  0
100250  1  0
103251  1  0
104252  1  6
105253  1  0
105254  1  0
106255  1  0
106256  1  0
109257  1  0
112258  1  0
113259  1  6
114260  1  0
114261  1  0
116262  1  0
117263  1  0
118264  1  0
122265  1  0
123266  1  6
124267  1  0
124268  1  0
125269  1  0
125270  1  0
125271  1  0
128272  1  0
130273  1  0
130274  1  0
131275  1  0
131276  1  0
132277  1  0
132278  1  0
133279  1  0
134280  1  0
134281  1  0
134282  1  0
137283  1  0
138284  1  1
139285  1  0
139286  1  0
140287  1  0
140288  1  0
141289  1  0
141290  1  0
142291  1  0
144292  1  0
145293  1  0
145294  1  0
148295  1  0
149296  1  6
150297  1  0
150298  1  0
151299  1  0
151300  1  0
151301  1  0
154302  1  0
155303  1  1
156304  1  0
156305  1  0
157306  1  0
157307  1  0
159308  1  0
159309  1  0
159310  1  0
162311  1  0
M  END
