
     RDKit          2D

454460  0  0  0  0  0  0  0  0999 V2000
   49.1731   -4.8264    0.0000 C   0  0  0  0  0  0  0  0  0  0  0  0
   50.5733   -4.2884    0.0000 N   0  0  0  0  0  0  0  0  0  0  0  0
   51.7393   -5.2319    0.0000 C   0  0  0  0  0  0  0  0  0  0  0  0
   51.5052   -6.7136    0.0000 C   0  0  0  0  0  0  0  0  0  0  0  0
   52.6712   -7.6571    0.0000 C   0  0  0  0  0  0  0  0  0  0  0  0
   54.0714   -7.1191    0.0000 C   0  0  0  0  0  0  0  0  0  0  0  0
   54.3055   -5.6375    0.0000 C   0  0  0  0  0  0  0  0  0  0  0  0
   53.1395   -4.6939    0.0000 C   0  0  0  0  0  0  0  0  0  0  0  0
   55.7870   -5.4023    0.0000 C   0  0  0  0  0  0  0  0  0  0  0  0
   56.4685   -6.7386    0.0000 O   0  0  0  0  0  0  0  0  0  0  0  0
   55.4082   -7.7996    0.0000 C   0  0  0  0  0  0  0  0  0  0  0  0
   55.6433   -9.2810    0.0000 O   0  0  0  0  0  0  0  0  0  0  0  0
   57.2849   -5.3232    0.0000 C   0  0  0  0  0  0  0  0  0  0  0  0
   57.9654   -3.9865    0.0000 C   0  0  0  0  0  0  0  0  0  0  0  0
   59.4633   -3.9075    0.0000 C   0  0  0  0  0  0  0  0  0  0  0  0
   60.2807   -5.1652    0.0000 C   0  0  0  0  0  0  0  0  0  0  0  0
   59.6002   -6.5019    0.0000 C   0  0  0  0  0  0  0  0  0  0  0  0
   58.1023   -6.5810    0.0000 C   0  0  0  0  0  0  0  0  0  0  0  0
   61.7787   -5.0861    0.0000 O   0  0  0  0  0  0  0  0  0  0  0  0
   57.1480   -2.7288    0.0000 O   0  0  0  0  0  0  0  0  0  0  0  0
   55.6501   -2.8078    0.0000 C   0  0  0  0  0  0  0  0  0  0  0  0
   54.9696   -4.1446    0.0000 C   0  0  0  0  0  0  0  0  0  0  0  0
   53.7892   -3.5998    0.0000 C   0  0  0  0  0  0  0  0  0  0  0  0
   53.3533   -2.9290    0.0000 C   0  0  0  0  0  0  0  0  0  0  0  0
   53.7162   -2.2161    0.0000 C   0  0  0  0  0  0  0  0  0  0  0  0
   54.5151   -2.1739    0.0000 C   0  0  0  0  0  0  0  0  0  0  0  0
   52.5174   -0.3714    0.0000 O   0  0  0  0  0  0  0  0  0  0  0  0
   48.9390   -6.3080    0.0000 S   0  0  0  0  0  0  0  0  0  0  0  0
   48.0070   -3.8829    0.0000 N   0  0  0  0  0  0  0  0  0  0  0  0
   46.6068   -4.4209    0.0000 C   0  0  0  0  0  0  0  0  0  0  0  0
   45.4408   -3.4773    0.0000 C   0  0  0  0  0  0  0  0  0  0  0  0
   44.0406   -4.0154    0.0000 C   0  0  0  0  0  0  0  0  0  0  0  0
   43.8065   -5.4970    0.0000 O   0  0  0  0  0  0  0  0  0  0  0  0
   42.8746   -3.0718    0.0000 N   0  0  0  0  0  0  0  0  0  0  0  0
   41.4744   -3.6099    0.0000 C   0  0  0  0  0  0  0  0  0  0  0  0
   40.3427   -4.5944    0.0000 C   0  0  0  0  0  0  0  0  0  0  0  0
   38.8436   -4.6474    0.0000 O   0  0  0  0  0  0  0  0  0  0  0  0
   40.3083   -2.6663    0.0000 C   0  0  0  0  0  0  0  0  0  0  0  0
   40.5424   -1.1847    0.0000 O   0  0  0  0  0  0  0  0  0  0  0  0
   38.9081   -3.2044    0.0000 N   0  0  0  0  0  0  0  0  0  0  0  0
   37.7421   -2.2608    0.0000 C   0  0  0  0  0  0  0  0  0  0  0  0
   36.9691   -0.9753    0.0000 C   0  0  0  0  0  0  0  0  0  0  0  0
   37.6958    0.3369    0.0000 C   0  0  0  0  0  0  0  0  0  0  0  0
   36.9228    1.6224    0.0000 C   0  0  0  0  0  0  0  0  0  0  0  0
   37.6496    2.9345    0.0000 O   0  0  0  0  0  0  0  0  0  0  0  0
   35.4230    1.5956    0.0000 O   0  0  0  0  0  0  0  0  0  0  0  0
   36.3419   -2.7988    0.0000 C   0  0  0  0  0  0  0  0  0  0  0  0
   36.1078   -4.2805    0.0000 O   0  0  0  0  0  0  0  0  0  0  0  0
   35.1759   -1.8553    0.0000 N   0  0  0  0  0  0  0  0  0  0  0  0
   33.7757   -2.3933    0.0000 C   0  0  0  0  0  0  0  0  0  0  0  0
   32.6440   -3.3778    0.0000 C   0  0  0  0  0  0  0  0  0  0  0  0
   31.2255   -2.8900    0.0000 C   0  0  0  0  0  0  0  0  0  0  0  0
   30.0938   -3.8745    0.0000 C   0  0  0  0  0  0  0  0  0  0  0  0
   28.9052   -3.6223    0.0000 O   0  0  0  0  0  0  0  0  0  0  0  0
   30.3805   -5.3468    0.0000 O   0  0  0  0  0  0  0  0  0  0  0  0
   32.6096   -1.4498    0.0000 C   0  0  0  0  0  0  0  0  0  0  0  0
   32.8437    0.0319    0.0000 O   0  0  0  0  0  0  0  0  0  0  0  0
   31.2094   -1.9878    0.0000 N   0  0  0  0  0  0  0  0  0  0  0  0
   30.0434   -1.0442    0.0000 C   0  0  0  0  0  0  0  0  0  0  0  0
   29.2704    0.2412    0.0000 C   0  0  0  0  0  0  0  0  0  0  0  0
   29.9971    1.5534    0.0000 C   0  0  0  0  0  0  0  0  0  0  0  0
   29.2241    2.8389    0.0000 C   0  0  0  0  0  0  0  0  0  0  0  0
   31.1288    2.5379    0.0000 C   0  0  0  0  0  0  0  0  0  0  0  0
   28.6432   -1.5823    0.0000 C   0  0  0  0  0  0  0  0  0  0  0  0
   28.3087   -2.7503    0.0000 O   0  0  0  0  0  0  0  0  0  0  0  0
   27.4772   -0.6387    0.0000 N   0  0  0  0  0  0  0  0  0  0  0  0
   26.0770   -1.1768    0.0000 C   0  0  0  0  0  0  0  0  0  0  0  0
   24.9453   -2.1613    0.0000 C   0  0  0  0  0  0  0  0  0  0  0  0
   23.4779   -1.8499    0.0000 C   0  0  0  0  0  0  0  0  0  0  0  0
   24.9109   -0.2332    0.0000 C   0  0  0  0  0  0  0  0  0  0  0  0
   25.1450    1.2484    0.0000 O   0  0  0  0  0  0  0  0  0  0  0  0
   23.5107   -0.7712    0.0000 N   0  0  0  0  0  0  0  0  0  0  0  0
   22.3447    0.1723    0.0000 C   0  0  0  0  0  0  0  0  0  0  0  0
   21.5717    1.4578    0.0000 C   0  0  0  0  0  0  0  0  0  0  0  0
   20.9445   -0.3657    0.0000 C   0  0  0  0  0  0  0  0  0  0  0  0
   20.7104   -1.8473    0.0000 O   0  0  0  0  0  0  0  0  0  0  0  0
   19.7785    0.5778    0.0000 N   0  0  0  0  0  0  0  0  0  0  0  0
   18.3783    0.0398    0.0000 C   0  0  0  0  0  0  0  0  0  0  0  0
   17.2466   -0.9447    0.0000 C   0  0  0  0  0  0  0  0  0  0  0  0
   15.8281   -0.4569    0.0000 C   0  0  0  0  0  0  0  0  0  0  0  0
   14.6964   -1.4413    0.0000 C   0  0  0  0  0  0  0  0  0  0  0  0
   13.5078   -1.1892    0.0000 O   0  0  0  0  0  0  0  0  0  0  0  0
   14.9831   -2.9137    0.0000 O   0  0  0  0  0  0  0  0  0  0  0  0
   17.2122    0.9834    0.0000 C   0  0  0  0  0  0  0  0  0  0  0  0
   17.4463    2.4650    0.0000 O   0  0  0  0  0  0  0  0  0  0  0  0
   15.8120    0.4453    0.0000 N   0  0  0  0  0  0  0  0  0  0  0  0
   14.6460    1.3889    0.0000 C   0  0  0  0  0  0  0  0  0  0  0  0
   13.8730    2.6743    0.0000 C   0  0  0  0  0  0  0  0  0  0  0  0
   13.2458    0.8508    0.0000 C   0  0  0  0  0  0  0  0  0  0  0  0
   12.9113   -0.3172    0.0000 O   0  0  0  0  0  0  0  0  0  0  0  0
   12.0798    1.7944    0.0000 N   0  0  0  0  0  0  0  0  0  0  0  0
   10.6796    1.2563    0.0000 C   0  0  0  0  0  0  0  0  0  0  0  0
    9.5479    0.2718    0.0000 C   0  0  0  0  0  0  0  0  0  0  0  0
    8.1294    0.7597    0.0000 C   0  0  0  0  0  0  0  0  0  0  0  0
    6.9010   -0.1011    0.0000 C   0  0  0  0  0  0  0  0  0  0  0  0
    5.7027    0.8012    0.0000 N   0  0  0  0  0  0  0  0  0  0  0  0
    6.1906    2.2196    0.0000 C   0  0  0  0  0  0  0  0  0  0  0  0
    7.6903    2.1940    0.0000 N   0  0  0  0  0  0  0  0  0  0  0  0
    9.5135    2.1999    0.0000 C   0  0  0  0  0  0  0  0  0  0  0  0
    9.7476    3.6815    0.0000 O   0  0  0  0  0  0  0  0  0  0  0  0
    8.1133    1.6619    0.0000 N   0  0  0  0  0  0  0  0  0  0  0  0
    6.9473    2.6054    0.0000 C   0  0  0  0  0  0  0  0  0  0  0  0
    6.1743    3.8909    0.0000 C   0  0  0  0  0  0  0  0  0  0  0  0
    6.9010    5.2031    0.0000 C   0  0  0  0  0  0  0  0  0  0  0  0
    6.1280    6.4886    0.0000 N   0  0  0  0  0  0  0  0  0  0  0  0
    8.4008    5.2298    0.0000 O   0  0  0  0  0  0  0  0  0  0  0  0
    5.5471    2.0674    0.0000 C   0  0  0  0  0  0  0  0  0  0  0  0
    4.9614    0.6864    0.0000 O   0  0  0  0  0  0  0  0  0  0  0  0
    4.3811    3.0109    0.0000 N   0  0  0  0  0  0  0  0  0  0  0  0
    2.9809    2.4729    0.0000 C   0  0  0  0  0  0  0  0  0  0  0  0
    1.8492    1.4884    0.0000 C   0  0  0  0  0  0  0  0  0  0  0  0
    0.4307    1.9763    0.0000 C   0  0  0  0  0  0  0  0  0  0  0  0
   -0.7010    0.9918    0.0000 C   0  0  0  0  0  0  0  0  0  0  0  0
   -0.7353    2.9198    0.0000 C   0  0  0  0  0  0  0  0  0  0  0  0
    1.8148    3.4165    0.0000 C   0  0  0  0  0  0  0  0  0  0  0  0
    2.0489    4.8981    0.0000 O   0  0  0  0  0  0  0  0  0  0  0  0
    0.4146    2.8784    0.0000 N   0  0  0  0  0  0  0  0  0  0  0  0
   -0.7514    3.8220    0.0000 C   0  0  0  0  0  0  0  0  0  0  0  0
   -1.5244    5.1075    0.0000 C   0  0  0  0  0  0  0  0  0  0  0  0
   -0.7977    6.4196    0.0000 S   0  0  0  0  0  0  0  0  0  0  0  0
   -2.1516    3.2839    0.0000 C   0  0  0  0  0  0  0  0  0  0  0  0
   -2.3857    1.8023    0.0000 O   0  0  0  0  0  0  0  0  0  0  0  0
   -3.3176    4.2275    0.0000 N   0  0  0  0  0  0  0  0  0  0  0  0
   -4.7178    3.6894    0.0000 C   0  0  0  0  0  0  0  0  0  0  0  0
   -5.2409    2.2836    0.0000 C   0  0  0  0  0  0  0  0  0  0  0  0
   -6.1551    1.0944    0.0000 C   0  0  0  0  0  0  0  0  0  0  0  0
   -7.3792    0.2275    0.0000 C   0  0  0  0  0  0  0  0  0  0  0  0
   -8.8045   -0.2401    0.0000 C   0  0  0  0  0  0  0  0  0  0  0  0
   -3.5309    2.7723    0.0000 C   0  0  0  0  0  0  0  0  0  0  0  0
   -4.6324    5.1870    0.0000 C   0  0  0  0  0  0  0  0  0  0  0  0
   -3.2168    5.6830    0.0000 O   0  0  0  0  0  0  0  0  0  0  0  0
   -4.9922    6.6432    0.0000 N   0  0  0  0  0  0  0  0  0  0  0  0
   -5.7652    7.9287    0.0000 C   0  0  0  0  0  0  0  0  0  0  0  0
   -5.3128    9.3589    0.0000 C   0  0  0  0  0  0  0  0  0  0  0  0
   -3.8481    9.6822    0.0000 C   0  0  0  0  0  0  0  0  0  0  0  0
   -3.3958   11.1124    0.0000 C   0  0  0  0  0  0  0  0  0  0  0  0
   -2.3611    9.4851    0.0000 C   0  0  0  0  0  0  0  0  0  0  0  0
   -6.8827    8.9292    0.0000 C   0  0  0  0  0  0  0  0  0  0  0  0
   -6.0600   10.1834    0.0000 O   0  0  0  0  0  0  0  0  0  0  0  0
   -8.2456    9.5559    0.0000 N   0  0  0  0  0  0  0  0  0  0  0  0
   -9.7326    9.7530    0.0000 C   0  0  0  0  0  0  0  0  0  0  0  0
  -10.5687   10.9983    0.0000 C   0  0  0  0  0  0  0  0  0  0  0  0
   -9.9083   12.3451    0.0000 C   0  0  0  0  0  0  0  0  0  0  0  0
  -10.7444   13.5905    0.0000 C   0  0  0  0  0  0  0  0  0  0  0  0
   -8.8270   13.3848    0.0000 C   0  0  0  0  0  0  0  0  0  0  0  0
  -11.2116    9.5031    0.0000 C   0  0  0  0  0  0  0  0  0  0  0  0
  -11.6792   10.9283    0.0000 O   0  0  0  0  0  0  0  0  0  0  0  0
  -12.5512    8.8283    0.0000 N   0  0  0  0  0  0  0  0  0  0  0  0
  -13.6325    7.7886    0.0000 C   0  0  0  0  0  0  0  0  0  0  0  0
  -15.1274    7.9113    0.0000 C   0  0  0  0  0  0  0  0  0  0  0  0
  -15.7686    9.2674    0.0000 C   0  0  0  0  0  0  0  0  0  0  0  0
  -17.2636    9.3901    0.0000 C   0  0  0  0  0  0  0  0  0  0  0  0
  -17.9048   10.7462    0.0000 O   0  0  0  0  0  0  0  0  0  0  0  0
  -18.1174    8.1568    0.0000 O   0  0  0  0  0  0  0  0  0  0  0  0
  -14.3592    6.4764    0.0000 C   0  0  0  0  0  0  0  0  0  0  0  0
  -15.7651    6.9995    0.0000 O   0  0  0  0  0  0  0  0  0  0  0  0
  -14.6669    5.0083    0.0000 N   0  0  0  0  0  0  0  0  0  0  0  0
  -14.5282    3.5147    0.0000 C   0  0  0  0  0  0  0  0  0  0  0  0
  -13.9554    2.1284    0.0000 C   0  0  0  0  0  0  0  0  0  0  0  0
  -12.9994    0.9725    0.0000 C   0  0  0  0  0  0  0  0  0  0  0  0
  -11.7452    0.1497    0.0000 C   0  0  0  0  0  0  0  0  0  0  0  0
  -10.3042   -0.2668    0.0000 C   0  0  0  0  0  0  0  0  0  0  0  0
  -15.9467    4.0026    0.0000 C   0  0  0  0  0  0  0  0  0  0  0  0
  -15.5563    2.4224    0.0000 C   0  0  0  0  0  0  0  0  0  0  0  0
  -15.4848    0.9241    0.0000 O   0  0  0  0  0  0  0  0  0  0  0  0
  -17.0162    2.7666    0.0000 N   0  0  0  0  0  0  0  0  0  0  0  0
  -18.0443    1.6744    0.0000 C   0  0  0  0  0  0  0  0  0  0  0  0
  -18.6368    0.2963    0.0000 C   0  0  0  0  0  0  0  0  0  0  0  0
  -19.5043    2.0185    0.0000 C   0  0  0  0  0  0  0  0  0  0  0  0
  -19.9362    3.4550    0.0000 O   0  0  0  0  0  0  0  0  0  0  0  0
  -20.5324    0.9263    0.0000 N   0  0  0  0  0  0  0  0  0  0  0  0
  -21.9923    1.2705    0.0000 C   0  0  0  0  0  0  0  0  0  0  0  0
  -23.2465    2.0932    0.0000 C   0  0  0  0  0  0  0  0  0  0  0  0
  -22.9792    3.5692    0.0000 C   0  0  0  0  0  0  0  0  0  0  0  0
  -24.7065    2.4374    0.0000 C   0  0  0  0  0  0  0  0  0  0  0  0
  -25.1384    3.8739    0.0000 C   0  0  0  0  0  0  0  0  0  0  0  0
  -23.0204    0.1782    0.0000 C   0  0  0  0  0  0  0  0  0  0  0  0
  -22.5885   -1.2583    0.0000 O   0  0  0  0  0  0  0  0  0  0  0  0
  -24.4804    0.5224    0.0000 N   0  0  0  0  0  0  0  0  0  0  0  0
  -25.5084   -0.5699    0.0000 C   0  0  0  0  0  0  0  0  0  0  0  0
  -26.1009   -1.9479    0.0000 C   0  0  0  0  0  0  0  0  0  0  0  0
  -27.5906   -2.1238    0.0000 C   0  0  0  0  0  0  0  0  0  0  0  0
  -28.1831   -3.5019    0.0000 C   0  0  0  0  0  0  0  0  0  0  0  0
  -29.6402   -3.8581    0.0000 N   0  0  0  0  0  0  0  0  0  0  0  0
  -27.2859   -4.7040    0.0000 O   0  0  0  0  0  0  0  0  0  0  0  0
  -26.9684   -0.2257    0.0000 C   0  0  0  0  0  0  0  0  0  0  0  0
  -27.4003    1.2108    0.0000 O   0  0  0  0  0  0  0  0  0  0  0  0
  -27.9965   -1.3180    0.0000 N   0  0  0  0  0  0  0  0  0  0  0  0
  -29.4565   -0.9738    0.0000 C   0  0  0  0  0  0  0  0  0  0  0  0
  -30.7107   -0.1510    0.0000 C   0  0  0  0  0  0  0  0  0  0  0  0
  -30.6252    1.3465    0.0000 C   0  0  0  0  0  0  0  0  0  0  0  0
  -31.8794    2.1693    0.0000 O   0  0  0  0  0  0  0  0  0  0  0  0
  -29.2856    2.0213    0.0000 O   0  0  0  0  0  0  0  0  0  0  0  0
  -30.4845   -2.0661    0.0000 C   0  0  0  0  0  0  0  0  0  0  0  0
  -30.2309   -3.5445    0.0000 O   0  0  0  0  0  0  0  0  0  0  0  0
  -31.9445   -1.7219    0.0000 N   0  0  0  0  0  0  0  0  0  0  0  0
  -32.9726   -2.8142    0.0000 C   0  0  0  0  0  0  0  0  0  0  0  0
  -33.5651   -4.1922    0.0000 C   0  0  0  0  0  0  0  0  0  0  0  0
  -33.6505   -5.6898    0.0000 O   0  0  0  0  0  0  0  0  0  0  0  0
  -35.0222   -4.5484    0.0000 C   0  0  0  0  0  0  0  0  0  0  0  0
  -34.4326   -2.4700    0.0000 C   0  0  0  0  0  0  0  0  0  0  0  0
  -34.8645   -1.0335    0.0000 O   0  0  0  0  0  0  0  0  0  0  0  0
  -35.4606   -3.5623    0.0000 N   0  0  0  0  0  0  0  0  0  0  0  0
  -36.9206   -3.2181    0.0000 C   0  0  0  0  0  0  0  0  0  0  0  0
  -38.1748   -2.3953    0.0000 C   0  0  0  0  0  0  0  0  0  0  0  0
  -38.0894   -0.8977    0.0000 C   0  0  0  0  0  0  0  0  0  0  0  0
  -37.9487   -4.3104    0.0000 C   0  0  0  0  0  0  0  0  0  0  0  0
  -37.5168   -5.7468    0.0000 O   0  0  0  0  0  0  0  0  0  0  0  0
  -39.4086   -3.9662    0.0000 N   0  0  0  0  0  0  0  0  0  0  0  0
  -40.4367   -5.0584    0.0000 C   0  0  0  0  0  0  0  0  0  0  0  0
  -41.0292   -6.4365    0.0000 C   0  0  0  0  0  0  0  0  0  0  0  0
  -42.5188   -6.6124    0.0000 C   0  0  0  0  0  0  0  0  0  0  0  0
  -43.1113   -7.9904    0.0000 C   0  0  0  0  0  0  0  0  0  0  0  0
  -44.6010   -8.1663    0.0000 N   0  0  0  0  0  0  0  0  0  0  0  0
  -45.1935   -9.5443    0.0000 C   0  0  0  0  0  0  0  0  0  0  0  0
  -46.6935   -9.5374    0.0000 N   0  0  0  0  0  0  0  0  0  0  0  0
  -44.2963  -10.7465    0.0000 N   0  0  0  0  0  0  0  0  0  0  0  0
  -41.8967   -4.7142    0.0000 C   0  0  0  0  0  0  0  0  0  0  0  0
  -42.3286   -3.2778    0.0000 O   0  0  0  0  0  0  0  0  0  0  0  0
  -42.9248   -5.8065    0.0000 N   0  0  0  0  0  0  0  0  0  0  0  0
  -44.3847   -5.4623    0.0000 C   0  0  0  0  0  0  0  0  0  0  0  0
  -45.6389   -4.6396    0.0000 C   0  0  0  0  0  0  0  0  0  0  0  0
  -45.5535   -3.1420    0.0000 C   0  0  0  0  0  0  0  0  0  0  0  0
  -46.8077   -2.3192    0.0000 C   0  0  0  0  0  0  0  0  0  0  0  0
  -46.7223   -0.8217    0.0000 O   0  0  0  0  0  0  0  0  0  0  0  0
  -48.1474   -2.9940    0.0000 O   0  0  0  0  0  0  0  0  0  0  0  0
  -45.4128   -6.5546    0.0000 C   0  0  0  0  0  0  0  0  0  0  0  0
  -45.3413   -8.0529    0.0000 O   0  0  0  0  0  0  0  0  0  0  0  0
  -46.8728   -6.2104    0.0000 N   0  0  0  0  0  0  0  0  0  0  0  0
  -47.9008   -7.3027    0.0000 C   0  0  0  0  0  0  0  0  0  0  0  0
  -48.4933   -8.6807    0.0000 C   0  0  0  0  0  0  0  0  0  0  0  0
  -49.9830   -8.8566    0.0000 C   0  0  0  0  0  0  0  0  0  0  0  0
  -50.5755  -10.2347    0.0000 C   0  0  0  0  0  0  0  0  0  0  0  0
  -52.0651  -10.4106    0.0000 N   0  0  0  0  0  0  0  0  0  0  0  0
  -49.6783  -11.4368    0.0000 O   0  0  0  0  0  0  0  0  0  0  0  0
  -49.3608   -6.9585    0.0000 C   0  0  0  0  0  0  0  0  0  0  0  0
  -50.5144   -7.9173    0.0000 O   0  0  0  0  0  0  0  0  0  0  0  0
  -49.7927   -5.5220    0.0000 O   0  0  0  0  0  0  0  0  0  0  0  0
   50.6250   -2.7893    0.0000 H   0  0  0  0  0  0  0  0  0  0  0  0
   50.1050   -7.2516    0.0000 H   0  0  0  0  0  0  0  0  0  0  0  0
   52.4371   -9.1387    0.0000 H   0  0  0  0  0  0  0  0  0  0  0  0
   53.0081   -3.1997    0.0000 H   0  0  0  0  0  0  0  0  0  0  0  0
   60.1439   -2.5707    0.0000 H   0  0  0  0  0  0  0  0  0  0  0  0
   60.4176   -7.7596    0.0000 H   0  0  0  0  0  0  0  0  0  0  0  0
   57.4218   -7.9177    0.0000 H   0  0  0  0  0  0  0  0  0  0  0  0
   62.5961   -6.3439    0.0000 H   0  0  0  0  0  0  0  0  0  0  0  0
   52.7912   -5.5604    0.0000 H   0  0  0  0  0  0  0  0  0  0  0  0
   51.1579   -2.8617    0.0000 H   0  0  0  0  0  0  0  0  0  0  0  0
   55.5132   -0.2133    0.0000 H   0  0  0  0  0  0  0  0  0  0  0  0
   53.1979    0.9653    0.0000 H   0  0  0  0  0  0  0  0  0  0  0  0
   48.2412   -2.4012    0.0000 H   0  0  0  0  0  0  0  0  0  0  0  0
   45.4751   -5.4054    0.0000 H   0  0  0  0  0  0  0  0  0  0  0  0
   47.3799   -5.7064    0.0000 H   0  0  0  0  0  0  0  0  0  0  0  0
   44.6678   -2.1919    0.0000 H   0  0  0  0  0  0  0  0  0  0  0  0
   46.5725   -2.4929    0.0000 H   0  0  0  0  0  0  0  0  0  0  0  0
   43.1087   -1.5902    0.0000 H   0  0  0  0  0  0  0  0  0  0  0  0
   42.2474   -4.8953    0.0000 H   0  0  0  0  0  0  0  0  0  0  0  0
   39.6159   -5.9066    0.0000 H   0  0  0  0  0  0  0  0  0  0  0  0
   41.5087   -5.5379    0.0000 H   0  0  0  0  0  0  0  0  0  0  0  0
   37.7925   -5.0910    0.0000 H   0  0  0  0  0  0  0  0  0  0  0  0
   38.4952   -4.6464    0.0000 H   0  0  0  0  0  0  0  0  0  0  0  0
   38.9854   -1.4216    0.0000 H   0  0  0  0  0  0  0  0  0  0  0  0
   35.9267    0.1034    0.0000 H   0  0  0  0  0  0  0  0  0  0  0  0
   35.6328   -1.6567    0.0000 H   0  0  0  0  0  0  0  0  0  0  0  0
   38.8275    1.3214    0.0000 H   0  0  0  0  0  0  0  0  0  0  0  0
   38.9682   -0.4575    0.0000 H   0  0  0  0  0  0  0  0  0  0  0  0
   35.2276   -0.3562    0.0000 H   0  0  0  0  0  0  0  0  0  0  0  0
   34.5487   -3.6788    0.0000 H   0  0  0  0  0  0  0  0  0  0  0  0
   31.9172   -4.6900    0.0000 H   0  0  0  0  0  0  0  0  0  0  0  0
   33.8100   -4.3214    0.0000 H   0  0  0  0  0  0  0  0  0  0  0  0
   30.0595   -1.9464    0.0000 H   0  0  0  0  0  0  0  0  0  0  0  0
   31.2510   -1.3902    0.0000 H   0  0  0  0  0  0  0  0  0  0  0  0
   30.6238   -3.3687    0.0000 H   0  0  0  0  0  0  0  0  0  0  0  0
   31.2867   -0.2050    0.0000 H   0  0  0  0  0  0  0  0  0  0  0  0
   28.1043    1.1848    0.0000 H   0  0  0  0  0  0  0  0  0  0  0  0
   27.9341   -0.4401    0.0000 H   0  0  0  0  0  0  0  0  0  0  0  0
   31.2695    0.7590    0.0000 H   0  0  0  0  0  0  0  0  0  0  0  0
   29.7855    4.2299    0.0000 H   0  0  0  0  0  0  0  0  0  0  0  0
   28.0581    3.7825    0.0000 H   0  0  0  0  0  0  0  0  0  0  0  0
   27.9808    1.9997    0.0000 H   0  0  0  0  0  0  0  0  0  0  0  0
   31.0237    4.0342    0.0000 H   0  0  0  0  0  0  0  0  0  0  0  0
   32.5290    3.0760    0.0000 H   0  0  0  0  0  0  0  0  0  0  0  0
   31.9019    1.2524    0.0000 H   0  0  0  0  0  0  0  0  0  0  0  0
   27.5289    0.8604    0.0000 H   0  0  0  0  0  0  0  0  0  0  0  0
   26.8500   -2.4622    0.0000 H   0  0  0  0  0  0  0  0  0  0  0  0
   24.2185   -3.4734    0.0000 H   0  0  0  0  0  0  0  0  0  0  0  0
   26.1113   -3.1048    0.0000 H   0  0  0  0  0  0  0  0  0  0  0  0
   22.3951   -2.6579    0.0000 H   0  0  0  0  0  0  0  0  0  0  0  0
   22.3608   -0.7298    0.0000 H   0  0  0  0  0  0  0  0  0  0  0  0
   23.5523   -0.1736    0.0000 H   0  0  0  0  0  0  0  0  0  0  0  0
   23.0978   -2.2133    0.0000 H   0  0  0  0  0  0  0  0  0  0  0  0
   23.4764    1.1568    0.0000 H   0  0  0  0  0  0  0  0  0  0  0  0
   22.2984    2.7700    0.0000 H   0  0  0  0  0  0  0  0  0  0  0  0
   20.5293    2.5365    0.0000 H   0  0  0  0  0  0  0  0  0  0  0  0
   20.2354    0.7764    0.0000 H   0  0  0  0  0  0  0  0  0  0  0  0
   19.8302    2.0769    0.0000 H   0  0  0  0  0  0  0  0  0  0  0  0
   19.1513   -1.2457    0.0000 H   0  0  0  0  0  0  0  0  0  0  0  0
   16.5198   -2.2569    0.0000 H   0  0  0  0  0  0  0  0  0  0  0  0
   18.4126   -1.8883    0.0000 H   0  0  0  0  0  0  0  0  0  0  0  0
   14.6621    0.4867    0.0000 H   0  0  0  0  0  0  0  0  0  0  0  0
   15.8536    1.0429    0.0000 H   0  0  0  0  0  0  0  0  0  0  0  0
   15.2264   -0.9356    0.0000 H   0  0  0  0  0  0  0  0  0  0  0  0
   15.7777    2.3734    0.0000 H   0  0  0  0  0  0  0  0  0  0  0  0
   14.5997    3.9865    0.0000 H   0  0  0  0  0  0  0  0  0  0  0  0
   12.8306    3.7530    0.0000 H   0  0  0  0  0  0  0  0  0  0  0  0
   12.5367    1.9930    0.0000 H   0  0  0  0  0  0  0  0  0  0  0  0
   12.1315    3.2935    0.0000 H   0  0  0  0  0  0  0  0  0  0  0  0
   11.4526   -0.0291    0.0000 H   0  0  0  0  0  0  0  0  0  0  0  0
    8.8211   -1.0403    0.0000 H   0  0  0  0  0  0  0  0  0  0  0  0
   10.7139   -0.6717    0.0000 H   0  0  0  0  0  0  0  0  0  0  0  0
    6.8753   -1.6009    0.0000 H   0  0  0  0  0  0  0  0  0  0  0  0
    4.2684    0.3621    0.0000 H   0  0  0  0  0  0  0  0  0  0  0  0
    5.1864    3.3340    0.0000 H   0  0  0  0  0  0  0  0  0  0  0  0
    7.5277    0.2809    0.0000 H   0  0  0  0  0  0  0  0  0  0  0  0
    8.0790    3.5899    0.0000 H   0  0  0  0  0  0  0  0  0  0  0  0
    5.1319    4.9696    0.0000 H   0  0  0  0  0  0  0  0  0  0  0  0
    4.7649    3.3775    0.0000 H   0  0  0  0  0  0  0  0  0  0  0  0
    6.8548    7.8008    0.0000 H   0  0  0  0  0  0  0  0  0  0  0  0
    4.6282    6.4619    0.0000 H   0  0  0  0  0  0  0  0  0  0  0  0
    4.4328    4.5100    0.0000 H   0  0  0  0  0  0  0  0  0  0  0  0
    3.7539    1.1874    0.0000 H   0  0  0  0  0  0  0  0  0  0  0  0
    1.2878    0.0974    0.0000 H   0  0  0  0  0  0  0  0  0  0  0  0
    3.0152    0.5448    0.0000 H   0  0  0  0  0  0  0  0  0  0  0  0
    0.4562    3.4760    0.0000 H   0  0  0  0  0  0  0  0  0  0  0  0
   -2.2001    0.9388    0.0000 H   0  0  0  0  0  0  0  0  0  0  0  0
   -1.4278   -0.3204    0.0000 H   0  0  0  0  0  0  0  0  0  0  0  0
    0.3413   -0.0869    0.0000 H   0  0  0  0  0  0  0  0  0  0  0  0
   -0.8667    4.4141    0.0000 H   0  0  0  0  0  0  0  0  0  0  0  0
   -2.2297    3.0499    0.0000 H   0  0  0  0  0  0  0  0  0  0  0  0
   -1.6166    1.7060    0.0000 H   0  0  0  0  0  0  0  0  0  0  0  0
   -0.1710    1.4975    0.0000 H   0  0  0  0  0  0  0  0  0  0  0  0
    0.3803    4.8065    0.0000 H   0  0  0  0  0  0  0  0  0  0  0  0
   -2.4275    6.3051    0.0000 H   0  0  0  0  0  0  0  0  0  0  0  0
   -2.8607    4.4261    0.0000 H   0  0  0  0  0  0  0  0  0  0  0  0
   -1.5707    7.7051    0.0000 H   0  0  0  0  0  0  0  0  0  0  0  0
   -3.0835    5.7091    0.0000 H   0  0  0  0  0  0  0  0  0  0  0  0
   -3.7431    2.2019    0.0000 H   0  0  0  0  0  0  0  0  0  0  0  0
   -4.5329    0.9612    0.0000 H   0  0  0  0  0  0  0  0  0  0  0  0
   -4.8218    0.4071    0.0000 H   0  0  0  0  0  0  0  0  0  0  0  0
   -5.6910   -0.3320    0.0000 H   0  0  0  0  0  0  0  0  0  0  0  0
   -6.1877   -0.6838    0.0000 H   0  0  0  0  0  0  0  0  0  0  0  0
   -7.5392   -1.2640    0.0000 H   0  0  0  0  0  0  0  0  0  0  0  0
   -8.5545   -1.7191    0.0000 H   0  0  0  0  0  0  0  0  0  0  0  0
   -3.6327    1.1095    0.0000 H   0  0  0  0  0  0  0  0  0  0  0  0
   -2.5106    1.7300    0.0000 H   0  0  0  0  0  0  0  0  0  0  0  0
   -2.5544    3.6578    0.0000 H   0  0  0  0  0  0  0  0  0  0  0  0
   -3.6058    7.2160    0.0000 H   0  0  0  0  0  0  0  0  0  0  0  0
   -4.2652    7.9217    0.0000 H   0  0  0  0  0  0  0  0  0  0  0  0
   -5.5591   10.8385    0.0000 H   0  0  0  0  0  0  0  0  0  0  0  0
   -6.7079    9.9099    0.0000 H   0  0  0  0  0  0  0  0  0  0  0  0
   -3.6018    8.2026    0.0000 H   0  0  0  0  0  0  0  0  0  0  0  0
   -1.9814   11.6119    0.0000 H   0  0  0  0  0  0  0  0  0  0  0  0
   -3.4599   12.6110    0.0000 H   0  0  0  0  0  0  0  0  0  0  0  0
   -4.8476   11.4893    0.0000 H   0  0  0  0  0  0  0  0  0  0  0  0
   -1.3088   10.5540    0.0000 H   0  0  0  0  0  0  0  0  0  0  0  0
   -1.0312    8.7913    0.0000 H   0  0  0  0  0  0  0  0  0  0  0  0
   -2.8134    8.0549    0.0000 H   0  0  0  0  0  0  0  0  0  0  0  0
   -7.8290   10.9969    0.0000 H   0  0  0  0  0  0  0  0  0  0  0  0
   -8.7919   10.9214    0.0000 H   0  0  0  0  0  0  0  0  0  0  0  0
  -11.8791   11.7283    0.0000 H   0  0  0  0  0  0  0  0  0  0  0  0
  -11.8694   10.2512    0.0000 H   0  0  0  0  0  0  0  0  0  0  0  0
   -8.5979   11.6151    0.0000 H   0  0  0  0  0  0  0  0  0  0  0  0
  -10.2530   15.0077    0.0000 H   0  0  0  0  0  0  0  0  0  0  0  0
  -11.9560   14.4747    0.0000 H   0  0  0  0  0  0  0  0  0  0  0  0
  -11.9443   12.6903    0.0000 H   0  0  0  0  0  0  0  0  0  0  0  0
   -9.0066   14.8740    0.0000 H   0  0  0  0  0  0  0  0  0  0  0  0
   -7.4554   13.9920    0.0000 H   0  0  0  0  0  0  0  0  0  0  0  0
   -7.9909   12.1395    0.0000 H   0  0  0  0  0  0  0  0  0  0  0  0
  -13.4182   10.0524    0.0000 H   0  0  0  0  0  0  0  0  0  0  0  0
  -13.9594    9.2525    0.0000 H   0  0  0  0  0  0  0  0  0  0  0  0
  -16.5742    7.5154    0.0000 H   0  0  0  0  0  0  0  0  0  0  0  0
  -15.3543    6.4286    0.0000 H   0  0  0  0  0  0  0  0  0  0  0  0
  -15.9073   10.7610    0.0000 H   0  0  0  0  0  0  0  0  0  0  0  0
  -14.3809    9.8368    0.0000 H   0  0  0  0  0  0  0  0  0  0  0  0
  -16.1645    5.0937    0.0000 H   0  0  0  0  0  0  0  0  0  0  0  0
  -14.6158    0.7816    0.0000 H   0  0  0  0  0  0  0  0  0  0  0  0
  -15.4217    1.8123    0.0000 H   0  0  0  0  0  0  0  0  0  0  0  0
  -13.4124   -0.4695    0.0000 H   0  0  0  0  0  0  0  0  0  0  0  0
  -14.3074    0.2382    0.0000 H   0  0  0  0  0  0  0  0  0  0  0  0
  -11.5322   -1.3351    0.0000 H   0  0  0  0  0  0  0  0  0  0  0  0
  -12.9035   -0.8034    0.0000 H   0  0  0  0  0  0  0  0  0  0  0  0
  -10.5013   -1.7538    0.0000 H   0  0  0  0  0  0  0  0  0  0  0  0
  -17.2830    3.3212    0.0000 H   0  0  0  0  0  0  0  0  0  0  0  0
  -16.9890    5.0812    0.0000 H   0  0  0  0  0  0  0  0  0  0  0  0
  -15.5590    5.4516    0.0000 H   0  0  0  0  0  0  0  0  0  0  0  0
  -17.6200    4.1397    0.0000 H   0  0  0  0  0  0  0  0  0  0  0  0
  -16.7901    0.8516    0.0000 H   0  0  0  0  0  0  0  0  0  0  0  0
  -19.9644   -0.4018    0.0000 H   0  0  0  0  0  0  0  0  0  0  0  0
  -18.7222   -1.2012    0.0000 H   0  0  0  0  0  0  0  0  0  0  0  0
  -17.1768   -0.0479    0.0000 H   0  0  0  0  0  0  0  0  0  0  0  0
  -20.2788   -0.5521    0.0000 H   0  0  0  0  0  0  0  0  0  0  0  0
  -21.2363    2.5660    0.0000 H   0  0  0  0  0  0  0  0  0  0  0  0
  -24.1549    0.8995    0.0000 H   0  0  0  0  0  0  0  0  0  0  0  0
  -24.3017    4.5823    0.0000 H   0  0  0  0  0  0  0  0  0  0  0  0
  -22.5686    4.9688    0.0000 H   0  0  0  0  0  0  0  0  0  0  0  0
  -21.6701    3.4271    0.0000 H   0  0  0  0  0  0  0  0  0  0  0  0
  -26.1962    2.2615    0.0000 H   0  0  0  0  0  0  0  0  0  0  0  0
  -25.1518    1.0050    0.0000 H   0  0  0  0  0  0  0  0  0  0  0  0
  -26.5984    4.2181    0.0000 H   0  0  0  0  0  0  0  0  0  0  0  0
  -25.0530    5.3715    0.0000 H   0  0  0  0  0  0  0  0  0  0  0  0
  -23.7356    4.4050    0.0000 H   0  0  0  0  0  0  0  0  0  0  0  0
  -25.2470    1.8116    0.0000 H   0  0  0  0  0  0  0  0  0  0  0  0
  -24.2542   -1.3927    0.0000 H   0  0  0  0  0  0  0  0  0  0  0  0
  -26.1864   -3.4455    0.0000 H   0  0  0  0  0  0  0  0  0  0  0  0
  -24.6410   -2.2921    0.0000 H   0  0  0  0  0  0  0  0  0  0  0  0
  -29.0506   -1.7797    0.0000 H   0  0  0  0  0  0  0  0  0  0  0  0
  -28.2184   -0.7615    0.0000 H   0  0  0  0  0  0  0  0  0  0  0  0
  -30.2652   -5.0558    0.0000 H   0  0  0  0  0  0  0  0  0  0  0  0
  -30.8768   -2.7417    0.0000 H   0  0  0  0  0  0  0  0  0  0  0  0
  -27.9250   -2.8163    0.0000 H   0  0  0  0  0  0  0  0  0  0  0  0
  -28.8640    0.4042    0.0000 H   0  0  0  0  0  0  0  0  0  0  0  0
  -32.1178    0.3686    0.0000 H   0  0  0  0  0  0  0  0  0  0  0  0
  -31.6190   -1.3447    0.0000 H   0  0  0  0  0  0  0  0  0  0  0  0
  -32.5483   -0.3488    0.0000 H   0  0  0  0  0  0  0  0  0  0  0  0
  -31.7184   -3.6370    0.0000 H   0  0  0  0  0  0  0  0  0  0  0  0
  -32.1051   -4.5364    0.0000 H   0  0  0  0  0  0  0  0  0  0  0  0
  -34.8979   -6.5228    0.0000 H   0  0  0  0  0  0  0  0  0  0  0  0
  -35.8108   -5.6636    0.0000 H   0  0  0  0  0  0  0  0  0  0  0  0
  -36.5147   -4.0239    0.0000 H   0  0  0  0  0  0  0  0  0  0  0  0
  -35.6825   -3.0058    0.0000 H   0  0  0  0  0  0  0  0  0  0  0  0
  -35.2070   -5.0407    0.0000 H   0  0  0  0  0  0  0  0  0  0  0  0
  -36.1646   -1.9225    0.0000 H   0  0  0  0  0  0  0  0  0  0  0  0
  -39.5819   -1.8757    0.0000 H   0  0  0  0  0  0  0  0  0  0  0  0
  -39.0831   -3.5890    0.0000 H   0  0  0  0  0  0  0  0  0  0  0  0
  -39.3436   -0.0750    0.0000 H   0  0  0  0  0  0  0  0  0  0  0  0
  -37.4969    0.4803    0.0000 H   0  0  0  0  0  0  0  0  0  0  0  0
  -36.5983   -1.0614    0.0000 H   0  0  0  0  0  0  0  0  0  0  0  0
  -40.0124   -2.5930    0.0000 H   0  0  0  0  0  0  0  0  0  0  0  0
  -39.1825   -5.8812    0.0000 H   0  0  0  0  0  0  0  0  0  0  0  0
  -40.9315   -7.9333    0.0000 H   0  0  0  0  0  0  0  0  0  0  0  0
  -39.5692   -6.7807    0.0000 H   0  0  0  0  0  0  0  0  0  0  0  0
  -43.9788   -6.2682    0.0000 H   0  0  0  0  0  0  0  0  0  0  0  0
  -43.1466   -5.2501    0.0000 H   0  0  0  0  0  0  0  0  0  0  0  0
  -43.1968   -9.4880    0.0000 H   0  0  0  0  0  0  0  0  0  0  0  0
  -41.7042   -8.5100    0.0000 H   0  0  0  0  0  0  0  0  0  0  0  0
  -45.7624   -7.2170    0.0000 H   0  0  0  0  0  0  0  0  0  0  0  0
  -47.2756  -11.0983    0.0000 H   0  0  0  0  0  0  0  0  0  0  0  0
  -47.4494   -8.4176    0.0000 H   0  0  0  0  0  0  0  0  0  0  0  0
  -44.8888  -12.1245    0.0000 H   0  0  0  0  0  0  0  0  0  0  0  0
  -42.8067  -10.5706    0.0000 H   0  0  0  0  0  0  0  0  0  0  0  0
  -42.8533   -7.3048    0.0000 H   0  0  0  0  0  0  0  0  0  0  0  0
  -43.6287   -4.1668    0.0000 H   0  0  0  0  0  0  0  0  0  0  0  0
  -47.0461   -4.1200    0.0000 H   0  0  0  0  0  0  0  0  0  0  0  0
  -46.5473   -5.8333    0.0000 H   0  0  0  0  0  0  0  0  0  0  0  0
  -44.9610   -1.7640    0.0000 H   0  0  0  0  0  0  0  0  0  0  0  0
  -44.0625   -3.3057    0.0000 H   0  0  0  0  0  0  0  0  0  0  0  0
  -47.4766   -4.8373    0.0000 H   0  0  0  0  0  0  0  0  0  0  0  0
  -46.6466   -8.1255    0.0000 H   0  0  0  0  0  0  0  0  0  0  0  0
  -48.5788  -10.1783    0.0000 H   0  0  0  0  0  0  0  0  0  0  0  0
  -46.9935   -8.6614    0.0000 H   0  0  0  0  0  0  0  0  0  0  0  0
  -51.4430   -8.5124    0.0000 H   0  0  0  0  0  0  0  0  0  0  0  0
  -50.4400   -7.4280    0.0000 H   0  0  0  0  0  0  0  0  0  0  0  0
  -52.6576  -11.7886    0.0000 H   0  0  0  0  0  0  0  0  0  0  0  0
  -52.9623   -9.2085    0.0000 H   0  0  0  0  0  0  0  0  0  0  0  0
  1  2  1  0
  2  3  1  0
  3  4  2  0
  4  5  1  0
  5  6  2  0
  6  7  1  0
  7  8  2  0
  7  9  1  0
  9 10  1  0
 10 11  1  0
 11 12  2  0
  9 13  1  0
 13 14  1  0
 14 15  2  0
 15 16  1  0
 16 17  2  0
 17 18  1  0
 16 19  1  0
 14 20  1  0
 20 21  1  0
 21 22  2  0
 22 23  1  0
 23 24  2  0
 24 25  1  0
 25 26  2  0
 25 27  1  0
  1 28  2  0
  1 29  1  0
 29 30  1  0
 30 31  1  0
 31 32  1  0
 32 33  2  0
 32 34  1  0
 34 35  1  0
 35 36  1  0
 36 37  1  0
 35 38  1  0
 38 39  2  0
 38 40  1  0
 40 41  1  0
 41 42  1  0
 42 43  1  0
 43 44  1  0
 44 45  2  0
 44 46  1  0
 41 47  1  0
 47 48  2  0
 47 49  1  0
 49 50  1  0
 50 51  1  0
 51 52  1  0
 52 53  1  0
 53 54  2  0
 53 55  1  0
 50 56  1  0
 56 57  2  0
 56 58  1  0
 58 59  1  0
 59 60  1  0
 60 61  1  0
 61 62  1  0
 61 63  1  0
 59 64  1  0
 64 65  2  0
 64 66  1  0
 66 67  1  0
 67 68  1  0
 68 69  1  0
 67 70  1  0
 70 71  2  0
 70 72  1  0
 72 73  1  0
 73 74  1  0
 73 75  1  0
 75 76  2  0
 75 77  1  0
 77 78  1  0
 78 79  1  0
 79 80  1  0
 80 81  1  0
 81 82  2  0
 81 83  1  0
 78 84  1  0
 84 85  2  0
 84 86  1  0
 86 87  1  0
 87 88  1  0
 87 89  1  0
 89 90  2  0
 89 91  1  0
 91 92  1  0
 92 93  1  0
 93 94  1  0
 94 95  2  0
 95 96  1  0
 96 97  1  0
 97 98  2  0
 92 99  1  0
 99100  2  0
 99101  1  0
101102  1  0
102103  1  0
103104  1  0
104105  1  0
104106  2  0
102107  1  0
107108  2  0
107109  1  0
109110  1  0
110111  1  0
111112  1  0
112113  1  0
112114  1  0
110115  1  0
115116  2  0
115117  1  0
117118  1  0
118119  1  0
119120  1  0
118121  1  0
121122  2  0
121123  1  0
124123  1  1
124125  1  0
125126  1  0
126127  1  0
127128  1  0
124129  1  0
124130  1  0
130131  2  0
130132  1  0
132133  1  0
133134  1  0
134135  1  0
135136  1  0
135137  1  0
133138  1  0
138139  2  0
138140  1  0
140141  1  0
141142  1  0
142143  1  0
143144  1  0
143145  1  0
141146  1  0
146147  2  0
146148  1  0
148149  1  0
149150  1  0
150151  1  0
151152  1  0
152153  2  0
152154  1  0
149155  1  0
155156  2  0
155157  1  0
157158  1  0
158159  1  0
159160  1  0
160161  1  0
161162  1  0
158163  1  0
158164  1  1
164165  2  0
164166  1  0
166167  1  0
167168  1  0
167169  1  0
169170  2  0
169171  1  0
171172  1  0
172173  1  0
173174  1  0
173175  1  0
175176  1  0
172177  1  0
177178  2  0
177179  1  0
179180  1  0
180181  1  0
181182  1  0
182183  1  0
183184  1  0
183185  2  0
180186  1  0
186187  2  0
186188  1  0
188189  1  0
189190  1  0
190191  1  0
191192  2  0
191193  1  0
189194  1  0
194195  2  0
194196  1  0
196197  1  0
197198  1  0
198199  1  0
198200  1  0
197201  1  0
201202  2  0
201203  1  0
203204  1  0
204205  1  0
205206  1  0
204207  1  0
207208  2  0
207209  1  0
209210  1  0
210211  1  0
211212  1  0
212213  1  0
213214  1  0
214215  1  0
215216  2  3
215217  1  0
210218  1  0
218219  2  0
218220  1  0
220221  1  0
221222  1  0
222223  1  0
223224  1  0
224225  2  0
224226  1  0
221227  1  0
227228  2  0
227229  1  0
229230  1  0
230231  1  0
231232  1  0
232233  1  0
233234  1  0
233235  2  0
230236  1  0
236237  2  0
236238  1  0
  8  3  1  0
 98 94  1  0
 11  6  1  0
 18 13  2  0
128162  2  0
 22  9  1  0
 26 21  1  0
  2239  1  0
  4240  1  0
  5241  1  0
  8242  1  0
 15243  1  0
 17244  1  0
 18245  1  0
 19246  1  0
 23247  1  0
 24248  1  0
 26249  1  0
 27250  1  0
 29251  1  0
 30252  1  0
 30253  1  0
 31254  1  0
 31255  1  0
 34256  1  0
 35257  1  1
 36258  1  0
 36259  1  0
 37260  1  0
 40261  1  0
 41262  1  6
 42263  1  0
 42264  1  0
 43265  1  0
 43266  1  0
 49267  1  0
 50268  1  1
 51269  1  0
 51270  1  0
 52271  1  0
 52272  1  0
 58273  1  0
 59274  1  6
 60275  1  0
 60276  1  0
 61277  1  0
 62278  1  0
 62279  1  0
 62280  1  0
 63281  1  0
 63282  1  0
 63283  1  0
 66284  1  0
 67285  1  1
 68286  1  0
 68287  1  0
 69288  1  0
 69289  1  0
 69290  1  0
 72291  1  0
 73292  1  6
 74293  1  0
 74294  1  0
 74295  1  0
 77296  1  0
 78297  1  1
 79298  1  0
 79299  1  0
 80300  1  0
 80301  1  0
 86302  1  0
 87303  1  6
 88304  1  0
 88305  1  0
 88306  1  0
 91307  1  0
 92308  1  1
 93309  1  0
 93310  1  0
 95311  1  0
 96312  1  0
 97313  1  0
101314  1  0
102315  1  6
103316  1  0
103317  1  0
105318  1  0
105319  1  0
109320  1  0
110321  1  1
111322  1  0
111323  1  0
112324  1  0
113325  1  0
113326  1  0
113327  1  0
114328  1  0
114329  1  0
114330  1  0
117331  1  0
118332  1  6
119333  1  0
119334  1  0
120335  1  0
123336  1  0
125337  1  0
125338  1  0
126339  1  0
126340  1  0
127341  1  0
127342  1  0
128343  1  0
129344  1  0
129345  1  0
129346  1  0
132347  1  0
133348  1  6
134349  1  0
134350  1  0
135351  1  0
136352  1  0
136353  1  0
136354  1  0
137355  1  0
137356  1  0
137357  1  0
140358  1  0
141359  1  6
142360  1  0
142361  1  0
143362  1  0
144363  1  0
144364  1  0
144365  1  0
145366  1  0
145367  1  0
145368  1  0
148369  1  0
149370  1  6
150371  1  0
150372  1  0
151373  1  0
151374  1  0
157375  1  0
159376  1  0
159377  1  0
160378  1  0
160379  1  0
161380  1  0
161381  1  0
162382  1  0
163383  1  0
163384  1  0
163385  1  0
166386  1  0
167387  1  1
168388  1  0
168389  1  0
168390  1  0
171391  1  0
172392  1  6
173393  1  1
174394  1  0
174395  1  0
174396  1  0
175397  1  0
175398  1  0
176399  1  0
176400  1  0
176401  1  0
179402  1  0
180403  1  1
181404  1  0
181405  1  0
182406  1  0
182407  1  0
184408  1  0
184409  1  0
188410  1  0
189411  1  6
190412  1  0
190413  1  0
196414  1  0
197415  1  1
198416  1  1
199417  1  0
200418  1  0
200419  1  0
200420  1  0
203421  1  0
204422  1  6
205423  1  0
205424  1  0
206425  1  0
206426  1  0
206427  1  0
209428  1  0
210429  1  1
211430  1  0
211431  1  0
212432  1  0
212433  1  0
213434  1  0
213435  1  0
214436  1  0
216437  1  0
216438  1  0
217439  1  0
217440  1  0
220441  1  0
221442  1  6
222443  1  0
222444  1  0
223445  1  0
223446  1  0
229447  1  0
230448  1  1
231449  1  0
231450  1  0
232451  1  0
232452  1  0
234453  1  0
234454  1  0
M  CHG  8  46  -1  55  -1  83  -1 154  -1 193  -1 216   1 226  -1 238  -1
M  END
