
     RDKit          2D

260267  0  0  0  0  0  0  0  0999 V2000
  -24.8162   -0.1805    0.0000 C   0  0  0  0  0  0  0  0  0  0  0  0
  -26.1005   -0.9553    0.0000 N   0  0  0  0  0  0  0  0  0  0  0  0
  -27.4138   -0.2304    0.0000 C   0  0  0  0  0  0  0  0  0  0  0  0
  -27.4426    1.2693    0.0000 C   0  0  0  0  0  0  0  0  0  0  0  0
  -28.7558    1.9942    0.0000 C   0  0  0  0  0  0  0  0  0  0  0  0
  -30.0402    1.2193    0.0000 C   0  0  0  0  0  0  0  0  0  0  0  0
  -30.0114   -0.2804    0.0000 C   0  0  0  0  0  0  0  0  0  0  0  0
  -28.6981   -1.0053    0.0000 C   0  0  0  0  0  0  0  0  0  0  0  0
  -31.4288   -0.7713    0.0000 C   0  0  0  0  0  0  0  0  0  0  0  0
  -32.3336    0.4251    0.0000 O   0  0  0  0  0  0  0  0  0  0  0  0
  -31.4755    1.6553    0.0000 C   0  0  0  0  0  0  0  0  0  0  0  0
  -31.9663    3.0727    0.0000 O   0  0  0  0  0  0  0  0  0  0  0  0
  -32.8897   -1.1113    0.0000 C   0  0  0  0  0  0  0  0  0  0  0  0
  -33.3257   -2.5466    0.0000 C   0  0  0  0  0  0  0  0  0  0  0  0
  -34.7867   -2.8866    0.0000 C   0  0  0  0  0  0  0  0  0  0  0  0
  -35.8116   -1.7914    0.0000 C   0  0  0  0  0  0  0  0  0  0  0  0
  -35.3756   -0.3562    0.0000 C   0  0  0  0  0  0  0  0  0  0  0  0
  -33.9147   -0.0161    0.0000 C   0  0  0  0  0  0  0  0  0  0  0  0
  -37.2726   -2.1314    0.0000 O   0  0  0  0  0  0  0  0  0  0  0  0
  -32.3008   -3.6418    0.0000 O   0  0  0  0  0  0  0  0  0  0  0  0
  -30.8398   -3.3017    0.0000 C   0  0  0  0  0  0  0  0  0  0  0  0
  -30.4038   -1.8665    0.0000 C   0  0  0  0  0  0  0  0  0  0  0  0
  -29.1463   -2.1962    0.0000 C   0  0  0  0  0  0  0  0  0  0  0  0
  -28.5997   -2.7803    0.0000 C   0  0  0  0  0  0  0  0  0  0  0  0
  -28.8322   -3.5458    0.0000 C   0  0  0  0  0  0  0  0  0  0  0  0
  -29.6114   -3.7272    0.0000 C   0  0  0  0  0  0  0  0  0  0  0  0
  -27.3290   -5.1521    0.0000 O   0  0  0  0  0  0  0  0  0  0  0  0
  -24.8450    1.3193    0.0000 S   0  0  0  0  0  0  0  0  0  0  0  0
  -23.5029   -0.9053    0.0000 N   0  0  0  0  0  0  0  0  0  0  0  0
  -22.2186   -0.1305    0.0000 C   0  0  0  0  0  0  0  0  0  0  0  0
  -20.9054   -0.8554    0.0000 C   0  0  0  0  0  0  0  0  0  0  0  0
  -19.6210   -0.0805    0.0000 O   0  0  0  0  0  0  0  0  0  0  0  0
  -18.3078   -0.8054    0.0000 C   0  0  0  0  0  0  0  0  0  0  0  0
  -17.0234   -0.0305    0.0000 O   0  0  0  0  0  0  0  0  0  0  0  0
  -15.7102   -0.7554    0.0000 C   0  0  0  0  0  0  0  0  0  0  0  0
  -14.4258    0.0194    0.0000 C   0  0  0  0  0  0  0  0  0  0  0  0
  -13.1126   -0.7054    0.0000 O   0  0  0  0  0  0  0  0  0  0  0  0
  -11.8282    0.0694    0.0000 C   0  0  0  0  0  0  0  0  0  0  0  0
  -10.5150   -0.6555    0.0000 C   0  0  0  0  0  0  0  0  0  0  0  0
   -9.2306    0.1194    0.0000 C   0  0  0  0  0  0  0  0  0  0  0  0
   -9.2595    1.6191    0.0000 O   0  0  0  0  0  0  0  0  0  0  0  0
   -7.9174   -0.6055    0.0000 N   0  0  0  0  0  0  0  0  0  0  0  0
   -6.6330    0.1694    0.0000 C   0  0  0  0  0  0  0  0  0  0  0  0
   -5.6911    1.3368    0.0000 C   0  0  0  0  0  0  0  0  0  0  0  0
   -4.2092    1.1048    0.0000 C   0  0  0  0  0  0  0  0  0  0  0  0
   -3.2673    2.2722    0.0000 C   0  0  0  0  0  0  0  0  0  0  0  0
   -1.7853    2.0401    0.0000 N   0  0  0  0  0  0  0  0  0  0  0  0
   -0.8434    3.2075    0.0000 C   0  0  0  0  0  0  0  0  0  0  0  0
    0.5992    2.7966    0.0000 N   0  0  0  0  0  0  0  0  0  0  0  0
   -1.3835    4.6070    0.0000 N   0  0  0  0  0  0  0  0  0  0  0  0
   -5.3198   -0.5555    0.0000 C   0  0  0  0  0  0  0  0  0  0  0  0
   -5.2909   -2.0552    0.0000 O   0  0  0  0  0  0  0  0  0  0  0  0
   -4.0354    0.2193    0.0000 N   0  0  0  0  0  0  0  0  0  0  0  0
   -2.7222   -0.5055    0.0000 C   0  0  0  0  0  0  0  0  0  0  0  0
   -1.7361   -1.6358    0.0000 C   0  0  0  0  0  0  0  0  0  0  0  0
   -2.2219   -3.0550    0.0000 C   0  0  0  0  0  0  0  0  0  0  0  0
   -1.2358   -4.1853    0.0000 C   0  0  0  0  0  0  0  0  0  0  0  0
   -1.7216   -5.6044    0.0000 C   0  0  0  0  0  0  0  0  0  0  0  0
   -0.7355   -6.7348    0.0000 N   0  0  0  0  0  0  0  0  0  0  0  0
   -1.4378    0.2693    0.0000 C   0  0  0  0  0  0  0  0  0  0  0  0
   -1.1937    1.3352    0.0000 O   0  0  0  0  0  0  0  0  0  0  0  0
   -0.1246   -0.4556    0.0000 N   0  0  0  0  0  0  0  0  0  0  0  0
    1.1598    0.3193    0.0000 C   0  0  0  0  0  0  0  0  0  0  0  0
    2.1017    1.4867    0.0000 C   0  0  0  0  0  0  0  0  0  0  0  0
    2.4730   -0.4056    0.0000 C   0  0  0  0  0  0  0  0  0  0  0  0
    2.3188   -1.8976    0.0000 O   0  0  0  0  0  0  0  0  0  0  0  0
    3.7574    0.3693    0.0000 N   0  0  0  0  0  0  0  0  0  0  0  0
    5.0706   -0.3556    0.0000 C   0  0  0  0  0  0  0  0  0  0  0  0
    5.3960   -1.8199    0.0000 C   0  0  0  0  0  0  0  0  0  0  0  0
    6.1386   -3.1232    0.0000 C   0  0  0  0  0  0  0  0  0  0  0  0
    7.2324   -4.1497    0.0000 C   0  0  0  0  0  0  0  0  0  0  0  0
    8.5801   -4.8082    0.0000 C   0  0  0  0  0  0  0  0  0  0  0  0
    3.7691   -1.1014    0.0000 C   0  0  0  0  0  0  0  0  0  0  0  0
    5.1912    1.1395    0.0000 C   0  0  0  0  0  0  0  0  0  0  0  0
    3.8569    1.8249    0.0000 O   0  0  0  0  0  0  0  0  0  0  0  0
    5.7472    2.5327    0.0000 N   0  0  0  0  0  0  0  0  0  0  0  0
    6.6891    3.7001    0.0000 C   0  0  0  0  0  0  0  0  0  0  0  0
    6.4370    5.1788    0.0000 C   0  0  0  0  0  0  0  0  0  0  0  0
    5.0304    5.6998    0.0000 C   0  0  0  0  0  0  0  0  0  0  0  0
    4.7784    7.1785    0.0000 C   0  0  0  0  0  0  0  0  0  0  0  0
    3.3718    7.6995    0.0000 N   0  0  0  0  0  0  0  0  0  0  0  0
    3.1197    9.1782    0.0000 C   0  0  0  0  0  0  0  0  0  0  0  0
    1.7131    9.6993    0.0000 N   0  0  0  0  0  0  0  0  0  0  0  0
    4.2743   10.1358    0.0000 N   0  0  0  0  0  0  0  0  0  0  0  0
    7.9332    4.5380    0.0000 C   0  0  0  0  0  0  0  0  0  0  0  0
    7.2901    5.8931    0.0000 O   0  0  0  0  0  0  0  0  0  0  0  0
    9.3691    4.9720    0.0000 N   0  0  0  0  0  0  0  0  0  0  0  0
   10.8691    4.9634    0.0000 C   0  0  0  0  0  0  0  0  0  0  0  0
   11.8680    6.0824    0.0000 C   0  0  0  0  0  0  0  0  0  0  0  0
   11.3984    7.5070    0.0000 C   0  0  0  0  0  0  0  0  0  0  0  0
   12.3973    8.6260    0.0000 C   0  0  0  0  0  0  0  0  0  0  0  0
   10.4698    8.6851    0.0000 C   0  0  0  0  0  0  0  0  0  0  0  0
   12.2999    4.5131    0.0000 C   0  0  0  0  0  0  0  0  0  0  0  0
   12.9584    5.8609    0.0000 O   0  0  0  0  0  0  0  0  0  0  0  0
   13.5344    3.6611    0.0000 N   0  0  0  0  0  0  0  0  0  0  0  0
   14.4629    2.4830    0.0000 C   0  0  0  0  0  0  0  0  0  0  0  0
   15.9606    2.3997    0.0000 C   0  0  0  0  0  0  0  0  0  0  0  0
   16.7816    3.6551    0.0000 C   0  0  0  0  0  0  0  0  0  0  0  0
   18.2793    3.5718    0.0000 C   0  0  0  0  0  0  0  0  0  0  0  0
   19.1003    4.8272    0.0000 C   0  0  0  0  0  0  0  0  0  0  0  0
   18.4236    6.1659    0.0000 C   0  0  0  0  0  0  0  0  0  0  0  0
   16.9259    6.2492    0.0000 C   0  0  0  0  0  0  0  0  0  0  0  0
   16.1049    4.9938    0.0000 C   0  0  0  0  0  0  0  0  0  0  0  0
   15.0030    1.0836    0.0000 C   0  0  0  0  0  0  0  0  0  0  0  0
   16.4673    1.4091    0.0000 O   0  0  0  0  0  0  0  0  0  0  0  0
   15.1066   -0.4128    0.0000 N   0  0  0  0  0  0  0  0  0  0  0  0
   14.7645   -1.8733    0.0000 C   0  0  0  0  0  0  0  0  0  0  0  0
   14.0071   -3.1680    0.0000 C   0  0  0  0  0  0  0  0  0  0  0  0
   12.9017   -4.1820    0.0000 C   0  0  0  0  0  0  0  0  0  0  0  0
   11.5466   -4.8251    0.0000 C   0  0  0  0  0  0  0  0  0  0  0  0
   10.0621   -5.0402    0.0000 C   0  0  0  0  0  0  0  0  0  0  0  0
   16.2364   -1.5844    0.0000 C   0  0  0  0  0  0  0  0  0  0  0  0
   15.6331   -3.0961    0.0000 C   0  0  0  0  0  0  0  0  0  0  0  0
   15.3570   -4.5705    0.0000 O   0  0  0  0  0  0  0  0  0  0  0  0
   17.1265   -2.9553    0.0000 N   0  0  0  0  0  0  0  0  0  0  0  0
   17.9952   -4.1782    0.0000 C   0  0  0  0  0  0  0  0  0  0  0  0
   18.3932   -5.6244    0.0000 C   0  0  0  0  0  0  0  0  0  0  0  0
   17.3397   -6.6922    0.0000 O   0  0  0  0  0  0  0  0  0  0  0  0
   19.4885   -4.0373    0.0000 C   0  0  0  0  0  0  0  0  0  0  0  0
   20.1132   -2.6736    0.0000 O   0  0  0  0  0  0  0  0  0  0  0  0
   20.3572   -5.2602    0.0000 N   0  0  0  0  0  0  0  0  0  0  0  0
   21.8506   -5.1193    0.0000 C   0  0  0  0  0  0  0  0  0  0  0  0
   23.2057   -4.4762    0.0000 C   0  0  0  0  0  0  0  0  0  0  0  0
   24.4402   -5.3282    0.0000 C   0  0  0  0  0  0  0  0  0  0  0  0
   24.3196   -6.8234    0.0000 C   0  0  0  0  0  0  0  0  0  0  0  0
   25.5541   -7.6754    0.0000 C   0  0  0  0  0  0  0  0  0  0  0  0
   26.9093   -7.0323    0.0000 C   0  0  0  0  0  0  0  0  0  0  0  0
   28.1438   -7.8843    0.0000 O   0  0  0  0  0  0  0  0  0  0  0  0
   27.0299   -5.5372    0.0000 C   0  0  0  0  0  0  0  0  0  0  0  0
   25.7954   -4.6851    0.0000 C   0  0  0  0  0  0  0  0  0  0  0  0
   22.7192   -6.3422    0.0000 C   0  0  0  0  0  0  0  0  0  0  0  0
   23.5950   -6.4749    0.0000 O   0  0  0  0  0  0  0  0  0  0  0  0
   21.9329   -7.6196    0.0000 O   0  0  0  0  0  0  0  0  0  0  0  0
  -25.8891   -2.4403    0.0000 H   0  0  0  0  0  0  0  0  0  0  0  0
  -26.1582    2.0441    0.0000 H   0  0  0  0  0  0  0  0  0  0  0  0
  -28.7847    3.4939    0.0000 H   0  0  0  0  0  0  0  0  0  0  0  0
  -28.4904   -1.7749    0.0000 H   0  0  0  0  0  0  0  0  0  0  0  0
  -35.2227   -4.3218    0.0000 H   0  0  0  0  0  0  0  0  0  0  0  0
  -36.4006    0.7391    0.0000 H   0  0  0  0  0  0  0  0  0  0  0  0
  -33.4787    1.4191    0.0000 H   0  0  0  0  0  0  0  0  0  0  0  0
  -38.2975   -1.0362    0.0000 H   0  0  0  0  0  0  0  0  0  0  0  0
  -28.5069   -0.0912    0.0000 H   0  0  0  0  0  0  0  0  0  0  0  0
  -26.4264   -2.4623    0.0000 H   0  0  0  0  0  0  0  0  0  0  0  0
  -30.2509   -5.8322    0.0000 H   0  0  0  0  0  0  0  0  0  0  0  0
  -27.7650   -6.5873    0.0000 H   0  0  0  0  0  0  0  0  0  0  0  0
  -23.4741   -2.4051    0.0000 H   0  0  0  0  0  0  0  0  0  0  0  0
  -21.2767    1.0369    0.0000 H   0  0  0  0  0  0  0  0  0  0  0  0
  -23.2047    0.9998    0.0000 H   0  0  0  0  0  0  0  0  0  0  0  0
  -20.0644   -2.0974    0.0000 H   0  0  0  0  0  0  0  0  0  0  0  0
  -21.8473   -2.0228    0.0000 H   0  0  0  0  0  0  0  0  0  0  0  0
  -17.4668   -2.0475    0.0000 H   0  0  0  0  0  0  0  0  0  0  0  0
  -19.1003   -2.0789    0.0000 H   0  0  0  0  0  0  0  0  0  0  0  0
  -14.7241   -1.8857    0.0000 H   0  0  0  0  0  0  0  0  0  0  0  0
  -16.5027   -2.0289    0.0000 H   0  0  0  0  0  0  0  0  0  0  0  0
  -13.6332    1.2929    0.0000 H   0  0  0  0  0  0  0  0  0  0  0  0
  -15.4119    1.1497    0.0000 H   0  0  0  0  0  0  0  0  0  0  0  0
  -10.8863    1.2368    0.0000 H   0  0  0  0  0  0  0  0  0  0  0  0
  -12.6692    1.3115    0.0000 H   0  0  0  0  0  0  0  0  0  0  0  0
   -9.5289   -1.7858    0.0000 H   0  0  0  0  0  0  0  0  0  0  0  0
  -11.4569   -1.8229    0.0000 H   0  0  0  0  0  0  0  0  0  0  0  0
   -7.8885   -2.1052    0.0000 H   0  0  0  0  0  0  0  0  0  0  0  0
   -7.6191    1.2997    0.0000 H   0  0  0  0  0  0  0  0  0  0  0  0
   -5.3819    2.8045    0.0000 H   0  0  0  0  0  0  0  0  0  0  0  0
   -7.0043    2.0616    0.0000 H   0  0  0  0  0  0  0  0  0  0  0  0
   -2.8959    0.3799    0.0000 H   0  0  0  0  0  0  0  0  0  0  0  0
   -3.9717   -0.3763    0.0000 H   0  0  0  0  0  0  0  0  0  0  0  0
   -2.7814    3.6913    0.0000 H   0  0  0  0  0  0  0  0  0  0  0  0
   -4.4823    3.1517    0.0000 H   0  0  0  0  0  0  0  0  0  0  0  0
   -0.9227    0.8130    0.0000 H   0  0  0  0  0  0  0  0  0  0  0  0
    1.5804    4.1429    0.0000 H   0  0  0  0  0  0  0  0  0  0  0  0
    1.0255    1.5146    0.0000 H   0  0  0  0  0  0  0  0  0  0  0  0
   -0.4416    5.7744    0.0000 H   0  0  0  0  0  0  0  0  0  0  0  0
   -2.8654    4.8390    0.0000 H   0  0  0  0  0  0  0  0  0  0  0  0
   -3.7005    1.6815    0.0000 H   0  0  0  0  0  0  0  0  0  0  0  0
   -3.7994   -1.5494    0.0000 H   0  0  0  0  0  0  0  0  0  0  0  0
   -0.4229   -2.3607    0.0000 H   0  0  0  0  0  0  0  0  0  0  0  0
   -0.5397   -0.7311    0.0000 H   0  0  0  0  0  0  0  0  0  0  0  0
   -3.2991   -4.0989    0.0000 H   0  0  0  0  0  0  0  0  0  0  0  0
   -3.6137   -2.4956    0.0000 H   0  0  0  0  0  0  0  0  0  0  0  0
    0.1560   -4.7447    0.0000 H   0  0  0  0  0  0  0  0  0  0  0  0
   -0.1586   -3.1414    0.0000 H   0  0  0  0  0  0  0  0  0  0  0  0
   -2.6635   -6.7718    0.0000 H   0  0  0  0  0  0  0  0  0  0  0  0
   -3.1134   -5.0451    0.0000 H   0  0  0  0  0  0  0  0  0  0  0  0
   -1.2213   -8.1539    0.0000 H   0  0  0  0  0  0  0  0  0  0  0  0
    0.5777   -7.4596    0.0000 H   0  0  0  0  0  0  0  0  0  0  0  0
    0.3417   -5.6909    0.0000 H   0  0  0  0  0  0  0  0  0  0  0  0
    0.0869   -1.9406    0.0000 H   0  0  0  0  0  0  0  0  0  0  0  0
    0.1737    1.4496    0.0000 H   0  0  0  0  0  0  0  0  0  0  0  0
    3.5190    1.9777    0.0000 H   0  0  0  0  0  0  0  0  0  0  0  0
    2.5875    2.9058    0.0000 H   0  0  0  0  0  0  0  0  0  0  0  0
    0.6521    1.8723    0.0000 H   0  0  0  0  0  0  0  0  0  0  0  0
    3.7285    1.8690    0.0000 H   0  0  0  0  0  0  0  0  0  0  0  0
    3.9012   -1.6956    0.0000 H   0  0  0  0  0  0  0  0  0  0  0  0
    4.5135   -3.0328    0.0000 H   0  0  0  0  0  0  0  0  0  0  0  0
    4.7237   -3.6212    0.0000 H   0  0  0  0  0  0  0  0  0  0  0  0
    5.4834   -4.4725    0.0000 H   0  0  0  0  0  0  0  0  0  0  0  0
    5.9273   -4.8890    0.0000 H   0  0  0  0  0  0  0  0  0  0  0  0
    7.1864   -5.6490    0.0000 H   0  0  0  0  0  0  0  0  0  0  0  0
    8.1298   -6.2390    0.0000 H   0  0  0  0  0  0  0  0  0  0  0  0
    3.6421   -2.7625    0.0000 H   0  0  0  0  0  0  0  0  0  0  0  0
    2.5154   -1.8468    0.0000 H   0  0  0  0  0  0  0  0  0  0  0  0
    2.9233   -0.0904    0.0000 H   0  0  0  0  0  0  0  0  0  0  0  0
    4.4524    3.2901    0.0000 H   0  0  0  0  0  0  0  0  0  0  0  0
    5.2023    3.8988    0.0000 H   0  0  0  0  0  0  0  0  0  0  0  0
    6.8838    6.6107    0.0000 H   0  0  0  0  0  0  0  0  0  0  0  0
    7.8945    5.5334    0.0000 H   0  0  0  0  0  0  0  0  0  0  0  0
    3.5305    5.7084    0.0000 H   0  0  0  0  0  0  0  0  0  0  0  0
    4.5837    4.2679    0.0000 H   0  0  0  0  0  0  0  0  0  0  0  0
    5.0473    8.6542    0.0000 H   0  0  0  0  0  0  0  0  0  0  0  0
    6.2682    7.3529    0.0000 H   0  0  0  0  0  0  0  0  0  0  0  0
    2.2172    6.7419    0.0000 H   0  0  0  0  0  0  0  0  0  0  0  0
    1.4611   11.1779    0.0000 H   0  0  0  0  0  0  0  0  0  0  0  0
    0.5586    8.7416    0.0000 H   0  0  0  0  0  0  0  0  0  0  0  0
    4.0222   11.6145    0.0000 H   0  0  0  0  0  0  0  0  0  0  0  0
    5.6809    9.6148    0.0000 H   0  0  0  0  0  0  0  0  0  0  0  0
    9.1540    6.4565    0.0000 H   0  0  0  0  0  0  0  0  0  0  0  0
   10.0974    6.2497    0.0000 H   0  0  0  0  0  0  0  0  0  0  0  0
   13.2661    6.6259    0.0000 H   0  0  0  0  0  0  0  0  0  0  0  0
   13.0540    5.1641    0.0000 H   0  0  0  0  0  0  0  0  0  0  0  0
   10.0003    6.9635    0.0000 H   0  0  0  0  0  0  0  0  0  0  0  0
   12.1048   10.0972    0.0000 H   0  0  0  0  0  0  0  0  0  0  0  0
   13.7187    9.3359    0.0000 H   0  0  0  0  0  0  0  0  0  0  0  0
   13.4625    7.5699    0.0000 H   0  0  0  0  0  0  0  0  0  0  0  0
   10.8518   10.1356    0.0000 H   0  0  0  0  0  0  0  0  0  0  0  0
    9.1944    9.4745    0.0000 H   0  0  0  0  0  0  0  0  0  0  0  0
    9.4709    7.5661    0.0000 H   0  0  0  0  0  0  0  0  0  0  0  0
   14.4199    4.8718    0.0000 H   0  0  0  0  0  0  0  0  0  0  0  0
   15.1548    3.8139    0.0000 H   0  0  0  0  0  0  0  0  0  0  0  0
   17.3395    1.8092    0.0000 H   0  0  0  0  0  0  0  0  0  0  0  0
   15.9821    0.8999    0.0000 H   0  0  0  0  0  0  0  0  0  0  0  0
   18.9560    2.2331    0.0000 H   0  0  0  0  0  0  0  0  0  0  0  0
   20.5980    4.7439    0.0000 H   0  0  0  0  0  0  0  0  0  0  0  0
   19.2446    7.4213    0.0000 H   0  0  0  0  0  0  0  0  0  0  0  0
   16.2492    7.5879    0.0000 H   0  0  0  0  0  0  0  0  0  0  0  0
   14.6285    5.2591    0.0000 H   0  0  0  0  0  0  0  0  0  0  0  0
   16.6017   -0.5334    0.0000 H   0  0  0  0  0  0  0  0  0  0  0  0
   14.4767   -4.5926    0.0000 H   0  0  0  0  0  0  0  0  0  0  0  0
   15.4162   -3.6821    0.0000 H   0  0  0  0  0  0  0  0  0  0  0  0
   13.1131   -5.6670    0.0000 H   0  0  0  0  0  0  0  0  0  0  0  0
   14.0967   -5.0886    0.0000 H   0  0  0  0  0  0  0  0  0  0  0  0
   11.1321   -6.2667    0.0000 H   0  0  0  0  0  0  0  0  0  0  0  0
   12.5633   -5.9280    0.0000 H   0  0  0  0  0  0  0  0  0  0  0  0
   10.0535   -6.5402    0.0000 H   0  0  0  0  0  0  0  0  0  0  0  0
   17.4667   -2.4425    0.0000 H   0  0  0  0  0  0  0  0  0  0  0  0
   17.4167   -0.6588    0.0000 H   0  0  0  0  0  0  0  0  0  0  0  0
   16.0510   -0.0959    0.0000 H   0  0  0  0  0  0  0  0  0  0  0  0
   17.9128   -1.6779    0.0000 H   0  0  0  0  0  0  0  0  0  0  0  0
   16.6400   -4.8213    0.0000 H   0  0  0  0  0  0  0  0  0  0  0  0
   19.1063   -6.9440    0.0000 H   0  0  0  0  0  0  0  0  0  0  0  0
   19.8637   -5.3283    0.0000 H   0  0  0  0  0  0  0  0  0  0  0  0
   17.7378   -8.1384    0.0000 H   0  0  0  0  0  0  0  0  0  0  0  0
   19.9034   -6.6899    0.0000 H   0  0  0  0  0  0  0  0  0  0  0  0
   21.4525   -3.6731    0.0000 H   0  0  0  0  0  0  0  0  0  0  0  0
   24.2592   -3.4084    0.0000 H   0  0  0  0  0  0  0  0  0  0  0  0
   22.3370   -3.2533    0.0000 H   0  0  0  0  0  0  0  0  0  0  0  0
   23.0530   -7.6269    0.0000 H   0  0  0  0  0  0  0  0  0  0  0  0
   25.4335   -9.1706    0.0000 H   0  0  0  0  0  0  0  0  0  0  0  0
   29.4989   -7.2412    0.0000 H   0  0  0  0  0  0  0  0  0  0  0  0
   28.3850   -4.8940    0.0000 H   0  0  0  0  0  0  0  0  0  0  0  0
   25.9160   -3.1900    0.0000 H   0  0  0  0  0  0  0  0  0  0  0  0
  1  2  1  0
  2  3  1  0
  3  4  2  0
  4  5  1  0
  5  6  2  0
  6  7  1  0
  7  8  2  0
  7  9  1  0
  9 10  1  0
 10 11  1  0
 11 12  2  0
  9 13  1  0
 13 14  1  0
 14 15  2  0
 15 16  1  0
 16 17  2  0
 17 18  1  0
 16 19  1  0
 14 20  1  0
 20 21  1  0
 21 22  2  0
 22 23  1  0
 23 24  2  0
 24 25  1  0
 25 26  2  0
 25 27  1  0
  1 28  2  0
  1 29  1  0
 29 30  1  0
 30 31  1  0
 31 32  1  0
 32 33  1  0
 33 34  1  0
 34 35  1  0
 35 36  1  0
 36 37  1  0
 37 38  1  0
 38 39  1  0
 39 40  1  0
 40 41  2  0
 40 42  1  0
 42 43  1  0
 43 44  1  0
 44 45  1  0
 45 46  1  0
 46 47  1  0
 47 48  1  0
 48 49  2  3
 48 50  1  0
 43 51  1  0
 51 52  2  0
 51 53  1  0
 53 54  1  0
 54 55  1  0
 55 56  1  0
 56 57  1  0
 57 58  1  0
 58 59  1  0
 54 60  1  0
 60 61  2  0
 60 62  1  0
 62 63  1  0
 63 64  1  0
 63 65  1  0
 65 66  2  0
 65 67  1  0
 68 67  1  6
 68 69  1  0
 69 70  1  0
 70 71  1  0
 71 72  1  0
 68 73  1  0
 68 74  1  0
 74 75  2  0
 74 76  1  0
 76 77  1  0
 77 78  1  0
 78 79  1  0
 79 80  1  0
 80 81  1  0
 81 82  1  0
 82 83  2  3
 82 84  1  0
 77 85  1  0
 85 86  2  0
 85 87  1  0
 87 88  1  0
 88 89  1  0
 89 90  1  0
 90 91  1  0
 90 92  1  0
 88 93  1  0
 93 94  2  0
 93 95  1  0
 95 96  1  0
 96 97  1  0
 97 98  1  0
 98 99  2  0
 99100  1  0
100101  2  0
101102  1  0
102103  2  0
 96104  1  0
104105  2  0
104106  1  0
106107  1  0
107108  1  0
108109  1  0
109110  1  0
110111  1  0
107112  1  0
107113  1  6
113114  2  0
113115  1  0
115116  1  0
116117  1  0
117118  1  0
116119  1  0
119120  2  0
119121  1  0
121122  1  0
122123  1  0
123124  1  0
124125  2  0
125126  1  0
126127  2  0
127128  1  0
127129  1  0
129130  2  0
122131  1  0
131132  2  0
131133  1  0
  8  3  1  0
103 98  1  0
130124  1  0
 11  6  1  0
 72111  2  0
 18 13  2  0
 22  9  1  0
 26 21  1  0
  2134  1  0
  4135  1  0
  5136  1  0
  8137  1  0
 15138  1  0
 17139  1  0
 18140  1  0
 19141  1  0
 23142  1  0
 24143  1  0
 26144  1  0
 27145  1  0
 29146  1  0
 30147  1  0
 30148  1  0
 31149  1  0
 31150  1  0
 33151  1  0
 33152  1  0
 35153  1  0
 35154  1  0
 36155  1  0
 36156  1  0
 38157  1  0
 38158  1  0
 39159  1  0
 39160  1  0
 42161  1  0
 43162  1  1
 44163  1  0
 44164  1  0
 45165  1  0
 45166  1  0
 46167  1  0
 46168  1  0
 47169  1  0
 49170  1  0
 49171  1  0
 50172  1  0
 50173  1  0
 53174  1  0
 54175  1  6
 55176  1  0
 55177  1  0
 56178  1  0
 56179  1  0
 57180  1  0
 57181  1  0
 58182  1  0
 58183  1  0
 59184  1  0
 59185  1  0
 59186  1  0
 62187  1  0
 63188  1  1
 64189  1  0
 64190  1  0
 64191  1  0
 67192  1  0
 69193  1  0
 69194  1  0
 70195  1  0
 70196  1  0
 71197  1  0
 71198  1  0
 72199  1  0
 73200  1  0
 73201  1  0
 73202  1  0
 76203  1  0
 77204  1  1
 78205  1  0
 78206  1  0
 79207  1  0
 79208  1  0
 80209  1  0
 80210  1  0
 81211  1  0
 83212  1  0
 83213  1  0
 84214  1  0
 84215  1  0
 87216  1  0
 88217  1  1
 89218  1  0
 89219  1  0
 90220  1  0
 91221  1  0
 91222  1  0
 91223  1  0
 92224  1  0
 92225  1  0
 92226  1  0
 95227  1  0
 96228  1  1
 97229  1  0
 97230  1  0
 99231  1  0
100232  1  0
101233  1  0
102234  1  0
103235  1  0
106236  1  0
108237  1  0
108238  1  0
109239  1  0
109240  1  0
110241  1  0
110242  1  0
111243  1  0
112244  1  0
112245  1  0
112246  1  0
115247  1  0
116248  1  6
117249  1  0
117250  1  0
118251  1  0
121252  1  0
122253  1  1
123254  1  0
123255  1  0
125256  1  0
126257  1  0
128258  1  0
129259  1  0
130260  1  0
M  CHG  4  49   1  59   1  83   1 133  -1
M  END
