
     RDKit          2D

263265  0  0  0  0  0  0  0  0999 V2000
  -20.6232   -1.7145    0.0000 N   0  0  0  0  0  0  0  0  0  0  0  0
  -19.2416   -2.2986    0.0000 C   0  0  0  0  0  0  0  0  0  0  0  0
  -19.0568   -3.7872    0.0000 C   0  0  0  0  0  0  0  0  0  0  0  0
  -17.6752   -4.3714    0.0000 C   0  0  0  0  0  0  0  0  0  0  0  0
  -16.4785   -3.4670    0.0000 O   0  0  0  0  0  0  0  0  0  0  0  0
  -17.4904   -5.8600    0.0000 N   0  0  0  0  0  0  0  0  0  0  0  0
  -16.1088   -6.4442    0.0000 C   0  0  0  0  0  0  0  0  0  0  0  0
  -16.9240   -7.7033    0.0000 C   0  0  0  0  0  0  0  0  0  0  0  0
  -18.4221   -7.6269    0.0000 C   0  0  0  0  0  0  0  0  0  0  0  0
  -19.2373   -8.8860    0.0000 N   0  0  0  0  0  0  0  0  0  0  0  0
  -19.2626   -6.3845    0.0000 O   0  0  0  0  0  0  0  0  0  0  0  0
  -14.6107   -6.5206    0.0000 C   0  0  0  0  0  0  0  0  0  0  0  0
  -14.0958   -7.9294    0.0000 O   0  0  0  0  0  0  0  0  0  0  0  0
  -13.7955   -5.2615    0.0000 N   0  0  0  0  0  0  0  0  0  0  0  0
  -12.2975   -5.3379    0.0000 C   0  0  0  0  0  0  0  0  0  0  0  0
  -12.6329   -6.7999    0.0000 C   0  0  0  0  0  0  0  0  0  0  0  0
  -11.5344   -7.8214    0.0000 C   0  0  0  0  0  0  0  0  0  0  0  0
  -11.8698   -9.2834    0.0000 C   0  0  0  0  0  0  0  0  0  0  0  0
  -10.7714  -10.3049    0.0000 N   0  0  0  0  0  0  0  0  0  0  0  0
  -13.3037   -9.7240    0.0000 O   0  0  0  0  0  0  0  0  0  0  0  0
  -10.8636   -4.8974    0.0000 C   0  0  0  0  0  0  0  0  0  0  0  0
   -9.7652   -5.9188    0.0000 O   0  0  0  0  0  0  0  0  0  0  0  0
  -10.5282   -3.4353    0.0000 N   0  0  0  0  0  0  0  0  0  0  0  0
   -9.0944   -2.9948    0.0000 C   0  0  0  0  0  0  0  0  0  0  0  0
   -9.7772   -1.6592    0.0000 C   0  0  0  0  0  0  0  0  0  0  0  0
  -11.2752   -1.5828    0.0000 C   0  0  0  0  0  0  0  0  0  0  0  0
  -11.9581   -0.2472    0.0000 C   0  0  0  0  0  0  0  0  0  0  0  0
  -12.7091   -2.0233    0.0000 C   0  0  0  0  0  0  0  0  0  0  0  0
   -7.5963   -3.0712    0.0000 C   0  0  0  0  0  0  0  0  0  0  0  0
   -7.0814   -4.4801    0.0000 O   0  0  0  0  0  0  0  0  0  0  0  0
   -6.7811   -1.8121    0.0000 N   0  0  0  0  0  0  0  0  0  0  0  0
   -5.2830   -1.8885    0.0000 C   0  0  0  0  0  0  0  0  0  0  0  0
   -4.4366   -3.1269    0.0000 C   0  0  0  0  0  0  0  0  0  0  0  0
   -3.3711   -4.1827    0.0000 C   0  0  0  0  0  0  0  0  0  0  0  0
   -2.1251   -5.0178    0.0000 C   0  0  0  0  0  0  0  0  0  0  0  0
   -0.7435   -5.6020    0.0000 C   0  0  0  0  0  0  0  0  0  0  0  0
    0.7236   -5.9142    0.0000 C   0  0  0  0  0  0  0  0  0  0  0  0
    2.2233   -5.9431    0.0000 C   0  0  0  0  0  0  0  0  0  0  0  0
    3.7014   -5.6876    0.0000 C   0  0  0  0  0  0  0  0  0  0  0  0
   -6.1708   -3.0976    0.0000 C   0  0  0  0  0  0  0  0  0  0  0  0
   -5.8798   -0.5123    0.0000 C   0  0  0  0  0  0  0  0  0  0  0  0
   -7.3523   -0.7982    0.0000 O   0  0  0  0  0  0  0  0  0  0  0  0
   -6.2053    0.9519    0.0000 N   0  0  0  0  0  0  0  0  0  0  0  0
   -6.2478    2.4513    0.0000 C   0  0  0  0  0  0  0  0  0  0  0  0
   -7.5724    1.7474    0.0000 C   0  0  0  0  0  0  0  0  0  0  0  0
   -8.8443    2.5425    0.0000 C   0  0  0  0  0  0  0  0  0  0  0  0
   -8.7916    4.0416    0.0000 C   0  0  0  0  0  0  0  0  0  0  0  0
  -10.0636    4.8367    0.0000 N   0  0  0  0  0  0  0  0  0  0  0  0
  -10.0109    6.3358    0.0000 C   0  0  0  0  0  0  0  0  0  0  0  0
  -11.2828    7.1309    0.0000 N   0  0  0  0  0  0  0  0  0  0  0  0
   -8.6863    7.0397    0.0000 N   0  0  0  0  0  0  0  0  0  0  0  0
   -6.0058    3.9317    0.0000 C   0  0  0  0  0  0  0  0  0  0  0  0
   -7.4922    4.1336    0.0000 O   0  0  0  0  0  0  0  0  0  0  0  0
   -5.4880    5.3395    0.0000 N   0  0  0  0  0  0  0  0  0  0  0  0
   -4.7132    6.6238    0.0000 C   0  0  0  0  0  0  0  0  0  0  0  0
   -6.2080    6.7477    0.0000 C   0  0  0  0  0  0  0  0  0  0  0  0
   -6.8482    8.1043    0.0000 O   0  0  0  0  0  0  0  0  0  0  0  0
   -3.7092    7.7383    0.0000 C   0  0  0  0  0  0  0  0  0  0  0  0
   -4.7233    8.8436    0.0000 O   0  0  0  0  0  0  0  0  0  0  0  0
   -2.5125    8.6427    0.0000 N   0  0  0  0  0  0  0  0  0  0  0  0
   -1.1663    9.3043    0.0000 C   0  0  0  0  0  0  0  0  0  0  0  0
   -2.3569   10.2167    0.0000 C   0  0  0  0  0  0  0  0  0  0  0  0
   -2.1620   11.7040    0.0000 C   0  0  0  0  0  0  0  0  0  0  0  0
   -0.7765   12.2788    0.0000 C   0  0  0  0  0  0  0  0  0  0  0  0
   -0.5816   13.7661    0.0000 C   0  0  0  0  0  0  0  0  0  0  0  0
   -1.7721   14.6785    0.0000 C   0  0  0  0  0  0  0  0  0  0  0  0
   -3.1576   14.1037    0.0000 C   0  0  0  0  0  0  0  0  0  0  0  0
   -3.3525   12.6164    0.0000 C   0  0  0  0  0  0  0  0  0  0  0  0
    0.2808    9.6991    0.0000 C   0  0  0  0  0  0  0  0  0  0  0  0
    0.2074   11.1973    0.0000 O   0  0  0  0  0  0  0  0  0  0  0  0
    1.7765    9.8129    0.0000 N   0  0  0  0  0  0  0  0  0  0  0  0
    3.2667    9.6416    0.0000 C   0  0  0  0  0  0  0  0  0  0  0  0
    2.7584   11.0529    0.0000 C   0  0  0  0  0  0  0  0  0  0  0  0
    3.7265   12.1987    0.0000 C   0  0  0  0  0  0  0  0  0  0  0  0
    5.2028   11.9332    0.0000 C   0  0  0  0  0  0  0  0  0  0  0  0
    6.1708   13.0790    0.0000 C   0  0  0  0  0  0  0  0  0  0  0  0
    5.6626   14.4903    0.0000 C   0  0  0  0  0  0  0  0  0  0  0  0
    4.1862   14.7557    0.0000 C   0  0  0  0  0  0  0  0  0  0  0  0
    3.2182   13.6099    0.0000 C   0  0  0  0  0  0  0  0  0  0  0  0
    4.6975    9.1914    0.0000 C   0  0  0  0  0  0  0  0  0  0  0  0
    5.4457   10.4914    0.0000 O   0  0  0  0  0  0  0  0  0  0  0  0
    6.0173    8.4785    0.0000 N   0  0  0  0  0  0  0  0  0  0  0  0
    7.1783    7.5288    0.0000 C   0  0  0  0  0  0  0  0  0  0  0  0
    7.5137    8.9908    0.0000 C   0  0  0  0  0  0  0  0  0  0  0  0
    8.1386    6.3764    0.0000 C   0  0  0  0  0  0  0  0  0  0  0  0
    9.3770    7.2229    0.0000 O   0  0  0  0  0  0  0  0  0  0  0  0
    8.8635    5.0632    0.0000 N   0  0  0  0  0  0  0  0  0  0  0  0
    9.3267    3.6365    0.0000 C   0  0  0  0  0  0  0  0  0  0  0  0
   10.3993    4.6851    0.0000 C   0  0  0  0  0  0  0  0  0  0  0  0
   11.8437    4.2805    0.0000 C   0  0  0  0  0  0  0  0  0  0  0  0
   12.9163    5.3291    0.0000 C   0  0  0  0  0  0  0  0  0  0  0  0
   13.0626    3.4063    0.0000 C   0  0  0  0  0  0  0  0  0  0  0  0
    9.5115    2.1480    0.0000 C   0  0  0  0  0  0  0  0  0  0  0  0
   11.0049    2.0074    0.0000 O   0  0  0  0  0  0  0  0  0  0  0  0
    9.4114    0.6513    0.0000 N   0  0  0  0  0  0  0  0  0  0  0  0
    9.0297   -0.7993    0.0000 C   0  0  0  0  0  0  0  0  0  0  0  0
    8.3805   -2.1515    0.0000 C   0  0  0  0  0  0  0  0  0  0  0  0
    7.4870   -3.3564    0.0000 C   0  0  0  0  0  0  0  0  0  0  0  0
    6.3817   -4.3705    0.0000 C   0  0  0  0  0  0  0  0  0  0  0  0
    5.1044   -5.1570    0.0000 C   0  0  0  0  0  0  0  0  0  0  0  0
   10.0902   -1.8602    0.0000 C   0  0  0  0  0  0  0  0  0  0  0  0
   10.4990   -0.4971    0.0000 C   0  0  0  0  0  0  0  0  0  0  0  0
   11.1418    0.8582    0.0000 O   0  0  0  0  0  0  0  0  0  0  0  0
   11.4953   -1.6183    0.0000 N   0  0  0  0  0  0  0  0  0  0  0  0
   12.9646   -1.3161    0.0000 C   0  0  0  0  0  0  0  0  0  0  0  0
   14.2418   -0.5296    0.0000 C   0  0  0  0  0  0  0  0  0  0  0  0
   15.5616   -1.2424    0.0000 C   0  0  0  0  0  0  0  0  0  0  0  0
   16.8388   -0.4559    0.0000 O   0  0  0  0  0  0  0  0  0  0  0  0
   15.6812   -2.0306    0.0000 O   0  0  0  0  0  0  0  0  0  0  0  0
   13.9609   -2.4374    0.0000 C   0  0  0  0  0  0  0  0  0  0  0  0
   14.7555   -2.3731    0.0000 O   0  0  0  0  0  0  0  0  0  0  0  0
   13.4881   -3.8609    0.0000 N   0  0  0  0  0  0  0  0  0  0  0  0
   14.4844   -4.9822    0.0000 C   0  0  0  0  0  0  0  0  0  0  0  0
   15.8042   -5.6950    0.0000 C   0  0  0  0  0  0  0  0  0  0  0  0
   15.8467   -7.1944    0.0000 C   0  0  0  0  0  0  0  0  0  0  0  0
   17.1665   -7.9073    0.0000 C   0  0  0  0  0  0  0  0  0  0  0  0
   17.3915   -9.3903    0.0000 N   0  0  0  0  0  0  0  0  0  0  0  0
   18.4438   -7.1208    0.0000 O   0  0  0  0  0  0  0  0  0  0  0  0
   14.0116   -6.4057    0.0000 C   0  0  0  0  0  0  0  0  0  0  0  0
   12.5423   -6.7079    0.0000 O   0  0  0  0  0  0  0  0  0  0  0  0
   15.0079   -7.5269    0.0000 N   0  0  0  0  0  0  0  0  0  0  0  0
   14.5351   -8.9505    0.0000 C   0  0  0  0  0  0  0  0  0  0  0  0
   13.6039  -10.1264    0.0000 C   0  0  0  0  0  0  0  0  0  0  0  0
   14.1567  -11.5208    0.0000 C   0  0  0  0  0  0  0  0  0  0  0  0
   12.3266  -10.9129    0.0000 C   0  0  0  0  0  0  0  0  0  0  0  0
   11.0068  -10.2001    0.0000 C   0  0  0  0  0  0  0  0  0  0  0  0
   15.5315  -10.0717    0.0000 C   0  0  0  0  0  0  0  0  0  0  0  0
   15.2356  -11.5423    0.0000 O   0  0  0  0  0  0  0  0  0  0  0  0
   17.0266   -9.9508    0.0000 O   0  0  0  0  0  0  0  0  0  0  0  0
  -20.8081   -0.2259    0.0000 H   0  0  0  0  0  0  0  0  0  0  0  0
  -21.8199   -2.6188    0.0000 H   0  0  0  0  0  0  0  0  0  0  0  0
  -18.9062   -0.8366    0.0000 H   0  0  0  0  0  0  0  0  0  0  0  0
  -17.7436   -2.3751    0.0000 H   0  0  0  0  0  0  0  0  0  0  0  0
  -20.5548   -3.7108    0.0000 H   0  0  0  0  0  0  0  0  0  0  0  0
  -19.3922   -5.2492    0.0000 H   0  0  0  0  0  0  0  0  0  0  0  0
  -18.7884   -6.6117    0.0000 H   0  0  0  0  0  0  0  0  0  0  0  0
  -15.7734   -4.9821    0.0000 H   0  0  0  0  0  0  0  0  0  0  0  0
  -17.2594   -9.1653    0.0000 H   0  0  0  0  0  0  0  0  0  0  0  0
  -15.5424   -8.2875    0.0000 H   0  0  0  0  0  0  0  0  0  0  0  0
  -20.7353   -8.8096    0.0000 H   0  0  0  0  0  0  0  0  0  0  0  0
  -18.5544  -10.2216    0.0000 H   0  0  0  0  0  0  0  0  0  0  0  0
  -14.4783   -3.9259    0.0000 H   0  0  0  0  0  0  0  0  0  0  0  0
  -12.6624   -3.8830    0.0000 H   0  0  0  0  0  0  0  0  0  0  0  0
  -13.2885   -8.1490    0.0000 H   0  0  0  0  0  0  0  0  0  0  0  0
  -14.1147   -6.5674    0.0000 H   0  0  0  0  0  0  0  0  0  0  0  0
  -10.1529   -8.4056    0.0000 H   0  0  0  0  0  0  0  0  0  0  0  0
  -10.7192   -6.5623    0.0000 H   0  0  0  0  0  0  0  0  0  0  0  0
  -11.1068  -11.7669    0.0000 H   0  0  0  0  0  0  0  0  0  0  0  0
   -9.3375   -9.8644    0.0000 H   0  0  0  0  0  0  0  0  0  0  0  0
  -11.7430   -2.5554    0.0000 H   0  0  0  0  0  0  0  0  0  0  0  0
   -8.9095   -4.4834    0.0000 H   0  0  0  0  0  0  0  0  0  0  0  0
   -9.7792   -0.1592    0.0000 H   0  0  0  0  0  0  0  0  0  0  0  0
   -8.3433   -1.2187    0.0000 H   0  0  0  0  0  0  0  0  0  0  0  0
  -11.6362   -3.0387    0.0000 H   0  0  0  0  0  0  0  0  0  0  0  0
  -13.4356    0.0112    0.0000 H   0  0  0  0  0  0  0  0  0  0  0  0
  -12.1429    1.2413    0.0000 H   0  0  0  0  0  0  0  0  0  0  0  0
  -10.5886    0.3648    0.0000 H   0  0  0  0  0  0  0  0  0  0  0  0
  -13.2202   -3.4336    0.0000 H   0  0  0  0  0  0  0  0  0  0  0  0
  -14.2071   -1.9469    0.0000 H   0  0  0  0  0  0  0  0  0  0  0  0
  -13.0740   -0.5684    0.0000 H   0  0  0  0  0  0  0  0  0  0  0  0
   -7.6216   -0.5697    0.0000 H   0  0  0  0  0  0  0  0  0  0  0  0
   -5.0795   -4.4822    0.0000 H   0  0  0  0  0  0  0  0  0  0  0  0
   -5.8856   -3.5149    0.0000 H   0  0  0  0  0  0  0  0  0  0  0  0
   -3.7459   -5.6352    0.0000 H   0  0  0  0  0  0  0  0  0  0  0  0
   -4.7205   -4.8379    0.0000 H   0  0  0  0  0  0  0  0  0  0  0  0
   -2.2182   -6.5149    0.0000 H   0  0  0  0  0  0  0  0  0  0  0  0
   -3.3261   -5.9165    0.0000 H   0  0  0  0  0  0  0  0  0  0  0  0
   -0.5516   -7.0897    0.0000 H   0  0  0  0  0  0  0  0  0  0  0  0
   -1.7527   -6.7118    0.0000 H   0  0  0  0  0  0  0  0  0  0  0  0
    1.1936   -7.3387    0.0000 H   0  0  0  0  0  0  0  0  0  0  0  0
   -0.0573   -7.1949    0.0000 H   0  0  0  0  0  0  0  0  0  0  0  0
    3.1086   -7.1540    0.0000 H   0  0  0  0  0  0  0  0  0  0  0  0
    1.6989   -7.3484    0.0000 H   0  0  0  0  0  0  0  0  0  0  0  0
    4.0962   -7.1347    0.0000 H   0  0  0  0  0  0  0  0  0  0  0  0
   -7.4481   -3.5377    0.0000 H   0  0  0  0  0  0  0  0  0  0  0  0
   -6.0656   -4.6761    0.0000 H   0  0  0  0  0  0  0  0  0  0  0  0
   -4.7914   -4.0544    0.0000 H   0  0  0  0  0  0  0  0  0  0  0  0
   -7.6602    0.5870    0.0000 H   0  0  0  0  0  0  0  0  0  0  0  0
   -7.3511    3.4676    0.0000 H   0  0  0  0  0  0  0  0  0  0  0  0
   -8.7047    0.7635    0.0000 H   0  0  0  0  0  0  0  0  0  0  0  0
   -6.9626    0.3769    0.0000 H   0  0  0  0  0  0  0  0  0  0  0  0
  -10.3115    2.8547    0.0000 H   0  0  0  0  0  0  0  0  0  0  0  0
   -9.4065    1.1518    0.0000 H   0  0  0  0  0  0  0  0  0  0  0  0
   -8.2294    5.4322    0.0000 H   0  0  0  0  0  0  0  0  0  0  0  0
   -7.3245    3.7294    0.0000 H   0  0  0  0  0  0  0  0  0  0  0  0
  -11.3881    4.1328    0.0000 H   0  0  0  0  0  0  0  0  0  0  0  0
  -11.2301    8.6300    0.0000 H   0  0  0  0  0  0  0  0  0  0  0  0
  -12.6074    6.4270    0.0000 H   0  0  0  0  0  0  0  0  0  0  0  0
   -8.8168    8.5341    0.0000 H   0  0  0  0  0  0  0  0  0  0  0  0
   -7.6446    5.9605    0.0000 H   0  0  0  0  0  0  0  0  0  0  0  0
   -6.9572    5.6422    0.0000 H   0  0  0  0  0  0  0  0  0  0  0  0
   -5.2660    8.0182    0.0000 H   0  0  0  0  0  0  0  0  0  0  0  0
   -7.6551    6.3529    0.0000 H   0  0  0  0  0  0  0  0  0  0  0  0
   -6.4360    5.2652    0.0000 H   0  0  0  0  0  0  0  0  0  0  0  0
   -8.3168    8.4095    0.0000 H   0  0  0  0  0  0  0  0  0  0  0  0
   -3.4489    9.8146    0.0000 H   0  0  0  0  0  0  0  0  0  0  0  0
   -0.8775   10.7762    0.0000 H   0  0  0  0  0  0  0  0  0  0  0  0
   -3.7222   10.8380    0.0000 H   0  0  0  0  0  0  0  0  0  0  0  0
   -3.3502    9.0927    0.0000 H   0  0  0  0  0  0  0  0  0  0  0  0
    0.5164   11.5183    0.0000 H   0  0  0  0  0  0  0  0  0  0  0  0
    0.8039   14.3409    0.0000 H   0  0  0  0  0  0  0  0  0  0  0  0
   -1.5772   16.1658    0.0000 H   0  0  0  0  0  0  0  0  0  0  0  0
   -4.3482   15.0161    0.0000 H   0  0  0  0  0  0  0  0  0  0  0  0
   -4.7380   12.0416    0.0000 H   0  0  0  0  0  0  0  0  0  0  0  0
    1.6223   11.3050    0.0000 H   0  0  0  0  0  0  0  0  0  0  0  0
    4.3054   10.7237    0.0000 H   0  0  0  0  0  0  0  0  0  0  0  0
    1.9457   12.3137    0.0000 H   0  0  0  0  0  0  0  0  0  0  0  0
    1.3151   10.6444    0.0000 H   0  0  0  0  0  0  0  0  0  0  0  0
    5.8793   10.5944    0.0000 H   0  0  0  0  0  0  0  0  0  0  0  0
    7.6472   12.8136    0.0000 H   0  0  0  0  0  0  0  0  0  0  0  0
    6.6306   15.6361    0.0000 H   0  0  0  0  0  0  0  0  0  0  0  0
    3.6780   16.1670    0.0000 H   0  0  0  0  0  0  0  0  0  0  0  0
    1.7419   13.8754    0.0000 H   0  0  0  0  0  0  0  0  0  0  0  0
    6.6943    9.8171    0.0000 H   0  0  0  0  0  0  0  0  0  0  0  0
    8.6372    7.8775    0.0000 H   0  0  0  0  0  0  0  0  0  0  0  0
    8.9476    9.4313    0.0000 H   0  0  0  0  0  0  0  0  0  0  0  0
    7.5117   10.4908    0.0000 H   0  0  0  0  0  0  0  0  0  0  0  0
    6.0787    9.4274    0.0000 H   0  0  0  0  0  0  0  0  0  0  0  0
   10.1566    5.8233    0.0000 H   0  0  0  0  0  0  0  0  0  0  0  0
   10.6716    2.9723    0.0000 H   0  0  0  0  0  0  0  0  0  0  0  0
   11.0485    6.0373    0.0000 H   0  0  0  0  0  0  0  0  0  0  0  0
    9.4281    5.8283    0.0000 H   0  0  0  0  0  0  0  0  0  0  0  0
   11.5409    2.8114    0.0000 H   0  0  0  0  0  0  0  0  0  0  0  0
   14.3992    5.1036    0.0000 H   0  0  0  0  0  0  0  0  0  0  0  0
   13.5655    6.6813    0.0000 H   0  0  0  0  0  0  0  0  0  0  0  0
   11.8130    6.3454    0.0000 H   0  0  0  0  0  0  0  0  0  0  0  0
   14.4943    3.8536    0.0000 H   0  0  0  0  0  0  0  0  0  0  0  0
   13.9090    2.1679    0.0000 H   0  0  0  0  0  0  0  0  0  0  0  0
   11.9900    2.3577    0.0000 H   0  0  0  0  0  0  0  0  0  0  0  0
   10.9102    0.5916    0.0000 H   0  0  0  0  0  0  0  0  0  0  0  0
    9.8714   -2.3158    0.0000 H   0  0  0  0  0  0  0  0  0  0  0  0
    9.0633   -3.4871    0.0000 H   0  0  0  0  0  0  0  0  0  0  0  0
    8.8552   -3.9712    0.0000 H   0  0  0  0  0  0  0  0  0  0  0  0
    8.0773   -4.7354    0.0000 H   0  0  0  0  0  0  0  0  0  0  0  0
    7.7048   -5.0771    0.0000 H   0  0  0  0  0  0  0  0  0  0  0  0
    6.5192   -5.8641    0.0000 H   0  0  0  0  0  0  0  0  0  0  0  0
    5.7660   -6.5032    0.0000 H   0  0  0  0  0  0  0  0  0  0  0  0
    9.7774   -3.4965    0.0000 H   0  0  0  0  0  0  0  0  0  0  0  0
   11.1047   -2.9081    0.0000 H   0  0  0  0  0  0  0  0  0  0  0  0
   11.1715   -1.1063    0.0000 H   0  0  0  0  0  0  0  0  0  0  0  0
   11.1995   -3.0889    0.0000 H   0  0  0  0  0  0  0  0  0  0  0  0
   12.4118    0.0783    0.0000 H   0  0  0  0  0  0  0  0  0  0  0  0
   15.1730    0.6464    0.0000 H   0  0  0  0  0  0  0  0  0  0  0  0
   13.2454    0.5917    0.0000 H   0  0  0  0  0  0  0  0  0  0  0  0
   12.0188   -4.1631    0.0000 H   0  0  0  0  0  0  0  0  0  0  0  0
   15.4157   -3.8062    0.0000 H   0  0  0  0  0  0  0  0  0  0  0  0
   17.2882   -5.9135    0.0000 H   0  0  0  0  0  0  0  0  0  0  0  0
   16.2771   -4.2715    0.0000 H   0  0  0  0  0  0  0  0  0  0  0  0
   15.3739   -8.6179    0.0000 H   0  0  0  0  0  0  0  0  0  0  0  0
   14.4339   -7.6984    0.0000 H   0  0  0  0  0  0  0  0  0  0  0  0
   18.5288  -10.1196    0.0000 H   0  0  0  0  0  0  0  0  0  0  0  0
   16.3166  -10.6631    0.0000 H   0  0  0  0  0  0  0  0  0  0  0  0
   16.5067   -7.5892    0.0000 H   0  0  0  0  0  0  0  0  0  0  0  0
   13.2153   -8.2376    0.0000 H   0  0  0  0  0  0  0  0  0  0  0  0
   12.7516   -8.8920    0.0000 H   0  0  0  0  0  0  0  0  0  0  0  0
   13.3757  -12.8015    0.0000 H   0  0  0  0  0  0  0  0  0  0  0  0
   15.1530  -12.6421    0.0000 H   0  0  0  0  0  0  0  0  0  0  0  0
   15.6537  -11.4262    0.0000 H   0  0  0  0  0  0  0  0  0  0  0  0
   11.3954  -12.0889    0.0000 H   0  0  0  0  0  0  0  0  0  0  0  0
   13.1789  -12.1473    0.0000 H   0  0  0  0  0  0  0  0  0  0  0  0
    9.7296  -10.9866    0.0000 H   0  0  0  0  0  0  0  0  0  0  0  0
   10.0105   -9.0788    0.0000 H   0  0  0  0  0  0  0  0  0  0  0  0
   11.7878   -8.9194    0.0000 H   0  0  0  0  0  0  0  0  0  0  0  0
  1  2  1  0
  2  3  1  0
  3  4  1  0
  4  5  2  0
  4  6  1  0
  6  7  1  0
  7  8  1  0
  8  9  1  0
  9 10  1  0
  9 11  2  0
  7 12  1  0
 12 13  2  0
 12 14  1  0
 14 15  1  0
 15 16  1  0
 16 17  1  0
 17 18  1  0
 18 19  1  0
 18 20  2  0
 15 21  1  0
 21 22  2  0
 21 23  1  0
 23 24  1  0
 24 25  1  0
 25 26  1  0
 26 27  1  0
 26 28  1  0
 24 29  1  0
 29 30  2  0
 29 31  1  0
 32 31  1  1
 32 33  1  0
 33 34  1  0
 34 35  1  0
 35 36  1  0
 36 37  1  0
 37 38  1  0
 38 39  1  0
 32 40  1  0
 32 41  1  0
 41 42  2  0
 41 43  1  0
 43 44  1  0
 44 45  1  0
 45 46  1  0
 46 47  1  0
 47 48  1  0
 48 49  1  0
 49 50  2  3
 49 51  1  0
 44 52  1  0
 52 53  2  0
 52 54  1  0
 54 55  1  0
 55 56  1  0
 56 57  1  0
 55 58  1  0
 58 59  2  0
 58 60  1  0
 60 61  1  0
 61 62  1  0
 62 63  1  0
 63 64  2  0
 64 65  1  0
 65 66  2  0
 66 67  1  0
 67 68  2  0
 61 69  1  0
 69 70  2  0
 69 71  1  0
 71 72  1  0
 72 73  1  0
 73 74  1  0
 74 75  2  0
 75 76  1  0
 76 77  2  0
 77 78  1  0
 78 79  2  0
 72 80  1  0
 80 81  2  0
 80 82  1  0
 82 83  1  0
 83 84  1  0
 83 85  1  0
 85 86  2  0
 85 87  1  0
 87 88  1  0
 88 89  1  0
 89 90  1  0
 90 91  1  0
 90 92  1  0
 88 93  1  0
 93 94  2  0
 93 95  1  0
 95 96  1  0
 96 97  1  0
 97 98  1  0
 98 99  1  0
 99100  1  0
 96101  1  0
 96102  1  6
102103  2  0
102104  1  0
104105  1  0
105106  1  0
106107  1  0
107108  2  0
107109  1  0
105110  1  0
110111  2  0
110112  1  0
112113  1  0
113114  1  0
114115  1  0
115116  1  0
116117  1  0
116118  2  0
113119  1  0
119120  2  0
119121  1  0
121122  1  0
122123  1  0
123124  1  0
123125  1  0
125126  1  0
122127  1  0
127128  2  0
127129  1  0
 68 63  1  0
 79 74  1  0
 39100  2  0
  1130  1  0
  1131  1  0
  2132  1  0
  2133  1  0
  3134  1  0
  3135  1  0
  6136  1  0
  7137  1  6
  8138  1  0
  8139  1  0
 10140  1  0
 10141  1  0
 14142  1  0
 15143  1  6
 16144  1  0
 16145  1  0
 17146  1  0
 17147  1  0
 19148  1  0
 19149  1  0
 23150  1  0
 24151  1  1
 25152  1  0
 25153  1  0
 26154  1  0
 27155  1  0
 27156  1  0
 27157  1  0
 28158  1  0
 28159  1  0
 28160  1  0
 31161  1  0
 33162  1  0
 33163  1  0
 34164  1  0
 34165  1  0
 35166  1  0
 35167  1  0
 36168  1  0
 36169  1  0
 37170  1  0
 37171  1  0
 38172  1  0
 38173  1  0
 39174  1  0
 40175  1  0
 40176  1  0
 40177  1  0
 43178  1  0
 44179  1  1
 45180  1  0
 45181  1  0
 46182  1  0
 46183  1  0
 47184  1  0
 47185  1  0
 48186  1  0
 50187  1  0
 50188  1  0
 51189  1  0
 51190  1  0
 54191  1  0
 55192  1  1
 56193  1  0
 56194  1  0
 57195  1  0
 60196  1  0
 61197  1  1
 62198  1  0
 62199  1  0
 64200  1  0
 65201  1  0
 66202  1  0
 67203  1  0
 68204  1  0
 71205  1  0
 72206  1  1
 73207  1  0
 73208  1  0
 75209  1  0
 76210  1  0
 77211  1  0
 78212  1  0
 79213  1  0
 82214  1  0
 83215  1  1
 84216  1  0
 84217  1  0
 84218  1  0
 87219  1  0
 88220  1  1
 89221  1  0
 89222  1  0
 90223  1  0
 91224  1  0
 91225  1  0
 91226  1  0
 92227  1  0
 92228  1  0
 92229  1  0
 95230  1  0
 97231  1  0
 97232  1  0
 98233  1  0
 98234  1  0
 99235  1  0
 99236  1  0
100237  1  0
101238  1  0
101239  1  0
101240  1  0
104241  1  0
105242  1  1
106243  1  0
106244  1  0
112245  1  0
113246  1  1
114247  1  0
114248  1  0
115249  1  0
115250  1  0
117251  1  0
117252  1  0
121253  1  0
122254  1  6
123255  1  6
124256  1  0
124257  1  0
124258  1  0
125259  1  0
125260  1  0
126261  1  0
126262  1  0
126263  1  0
M  CHG  3  50   1 109  -1 129  -1
M  END
