
     RDKit          2D

415416  0  0  0  0  0  0  0  0999 V2000
    2.3126   -2.4369    0.0000 N   0  0  0  0  0  0  0  0  0  0  0  0
    2.5446   -3.9188    0.0000 C   0  0  0  0  0  0  0  0  0  0  0  0
    1.3772   -4.8607    0.0000 C   0  0  0  0  0  0  0  0  0  0  0  0
    1.6092   -6.3426    0.0000 C   0  0  0  0  0  0  0  0  0  0  0  0
    3.0086   -6.8827    0.0000 O   0  0  0  0  0  0  0  0  0  0  0  0
    0.4418   -7.2845    0.0000 N   0  0  0  0  0  0  0  0  0  0  0  0
    0.6738   -8.7665    0.0000 C   0  0  0  0  0  0  0  0  0  0  0  0
   -0.8260   -8.7376    0.0000 C   0  0  0  0  0  0  0  0  0  0  0  0
   -1.7055   -7.5225    0.0000 O   0  0  0  0  0  0  0  0  0  0  0  0
    1.3986  -10.0797    0.0000 C   0  0  0  0  0  0  0  0  0  0  0  0
    0.5655  -11.1420    0.0000 O   0  0  0  0  0  0  0  0  0  0  0  0
    2.8983  -10.1086    0.0000 N   0  0  0  0  0  0  0  0  0  0  0  0
    3.6232  -11.4218    0.0000 C   0  0  0  0  0  0  0  0  0  0  0  0
    2.2040  -11.9076    0.0000 C   0  0  0  0  0  0  0  0  0  0  0  0
    1.9152  -13.3796    0.0000 C   0  0  0  0  0  0  0  0  0  0  0  0
    0.4960  -13.8654    0.0000 C   0  0  0  0  0  0  0  0  0  0  0  0
    0.2072  -15.3373    0.0000 O   0  0  0  0  0  0  0  0  0  0  0  0
   -0.6343  -12.8792    0.0000 O   0  0  0  0  0  0  0  0  0  0  0  0
    4.7535  -12.4079    0.0000 C   0  0  0  0  0  0  0  0  0  0  0  0
    4.3340  -13.6911    0.0000 O   0  0  0  0  0  0  0  0  0  0  0  0
    6.1726  -11.9221    0.0000 N   0  0  0  0  0  0  0  0  0  0  0  0
    7.3029  -12.9083    0.0000 C   0  0  0  0  0  0  0  0  0  0  0  0
    6.1355  -13.8501    0.0000 C   0  0  0  0  0  0  0  0  0  0  0  0
    6.3675  -15.3321    0.0000 C   0  0  0  0  0  0  0  0  0  0  0  0
    5.2001  -16.2740    0.0000 C   0  0  0  0  0  0  0  0  0  0  0  0
    5.4321  -17.7559    0.0000 O   0  0  0  0  0  0  0  0  0  0  0  0
    3.8007  -15.7339    0.0000 O   0  0  0  0  0  0  0  0  0  0  0  0
    8.7023  -13.4483    0.0000 C   0  0  0  0  0  0  0  0  0  0  0  0
    8.7425  -14.6627    0.0000 O   0  0  0  0  0  0  0  0  0  0  0  0
    9.8698  -12.5064    0.0000 N   0  0  0  0  0  0  0  0  0  0  0  0
   11.2692  -13.0465    0.0000 C   0  0  0  0  0  0  0  0  0  0  0  0
   10.4943  -14.3309    0.0000 C   0  0  0  0  0  0  0  0  0  0  0  0
   11.2192  -15.6441    0.0000 C   0  0  0  0  0  0  0  0  0  0  0  0
   10.4443  -16.9285    0.0000 C   0  0  0  0  0  0  0  0  0  0  0  0
   12.3495  -16.6302    0.0000 C   0  0  0  0  0  0  0  0  0  0  0  0
   12.7689  -13.0754    0.0000 C   0  0  0  0  0  0  0  0  0  0  0  0
   13.2723  -14.3280    0.0000 O   0  0  0  0  0  0  0  0  0  0  0  0
   13.5437  -11.7910    0.0000 N   0  0  0  0  0  0  0  0  0  0  0  0
   15.0435  -11.8199    0.0000 C   0  0  0  0  0  0  0  0  0  0  0  0
   14.7546  -13.2918    0.0000 C   0  0  0  0  0  0  0  0  0  0  0  0
   15.8849  -14.2779    0.0000 C   0  0  0  0  0  0  0  0  0  0  0  0
   16.4626  -11.3341    0.0000 C   0  0  0  0  0  0  0  0  0  0  0  0
   17.4643  -12.4506    0.0000 O   0  0  0  0  0  0  0  0  0  0  0  0
   16.7515   -9.8621    0.0000 N   0  0  0  0  0  0  0  0  0  0  0  0
   18.1706   -9.3763    0.0000 C   0  0  0  0  0  0  0  0  0  0  0  0
   18.4026  -10.8583    0.0000 C   0  0  0  0  0  0  0  0  0  0  0  0
   19.3380   -8.4345    0.0000 C   0  0  0  0  0  0  0  0  0  0  0  0
   20.6612   -9.1411    0.0000 O   0  0  0  0  0  0  0  0  0  0  0  0
   19.1060   -6.9525    0.0000 N   0  0  0  0  0  0  0  0  0  0  0  0
   20.2735   -6.0106    0.0000 C   0  0  0  0  0  0  0  0  0  0  0  0
   20.9983   -7.3238    0.0000 C   0  0  0  0  0  0  0  0  0  0  0  0
   22.4980   -7.3527    0.0000 C   0  0  0  0  0  0  0  0  0  0  0  0
   23.2229   -8.6659    0.0000 C   0  0  0  0  0  0  0  0  0  0  0  0
   24.7226   -8.6948    0.0000 O   0  0  0  0  0  0  0  0  0  0  0  0
   22.4480   -9.9503    0.0000 O   0  0  0  0  0  0  0  0  0  0  0  0
   21.0483   -4.7263    0.0000 C   0  0  0  0  0  0  0  0  0  0  0  0
   22.5333   -4.9377    0.0000 O   0  0  0  0  0  0  0  0  0  0  0  0
   20.3235   -3.4130    0.0000 N   0  0  0  0  0  0  0  0  0  0  0  0
   21.0983   -2.1287    0.0000 C   0  0  0  0  0  0  0  0  0  0  0  0
   22.2286   -3.1148    0.0000 C   0  0  0  0  0  0  0  0  0  0  0  0
   21.3872   -0.6567    0.0000 C   0  0  0  0  0  0  0  0  0  0  0  0
   22.8550   -0.3475    0.0000 O   0  0  0  0  0  0  0  0  0  0  0  0
   20.2569    0.3294    0.0000 N   0  0  0  0  0  0  0  0  0  0  0  0
   20.5457    1.8013    0.0000 C   0  0  0  0  0  0  0  0  0  0  0  0
   21.9451    1.2612    0.0000 C   0  0  0  0  0  0  0  0  0  0  0  0
   23.1126    2.2031    0.0000 C   0  0  0  0  0  0  0  0  0  0  0  0
   23.0367    3.7012    0.0000 C   0  0  0  0  0  0  0  0  0  0  0  0
   24.4381    4.2363    0.0000 N   0  0  0  0  0  0  0  0  0  0  0  0
   25.3800    3.0688    0.0000 C   0  0  0  0  0  0  0  0  0  0  0  0
   24.5607    1.8123    0.0000 N   0  0  0  0  0  0  0  0  0  0  0  0
   20.3138    3.2833    0.0000 C   0  0  0  0  0  0  0  0  0  0  0  0
   21.4812    4.2251    0.0000 O   0  0  0  0  0  0  0  0  0  0  0  0
   18.9143    3.8233    0.0000 N   0  0  0  0  0  0  0  0  0  0  0  0
   18.6824    5.3053    0.0000 C   0  0  0  0  0  0  0  0  0  0  0  0
   20.1821    5.2764    0.0000 C   0  0  0  0  0  0  0  0  0  0  0  0
   20.9569    6.5608    0.0000 C   0  0  0  0  0  0  0  0  0  0  0  0
   22.4567    6.5319    0.0000 N   0  0  0  0  0  0  0  0  0  0  0  0
   20.2321    7.8740    0.0000 O   0  0  0  0  0  0  0  0  0  0  0  0
   17.9575    6.6185    0.0000 C   0  0  0  0  0  0  0  0  0  0  0  0
   18.8831    7.7988    0.0000 O   0  0  0  0  0  0  0  0  0  0  0  0
   16.4578    6.6474    0.0000 N   0  0  0  0  0  0  0  0  0  0  0  0
   15.7329    7.9606    0.0000 C   0  0  0  0  0  0  0  0  0  0  0  0
   17.1521    8.4464    0.0000 C   0  0  0  0  0  0  0  0  0  0  0  0
   17.4409    9.9183    0.0000 C   0  0  0  0  0  0  0  0  0  0  0  0
   18.8601   10.4042    0.0000 C   0  0  0  0  0  0  0  0  0  0  0  0
   17.2089   11.4003    0.0000 C   0  0  0  0  0  0  0  0  0  0  0  0
   14.6026    8.9467    0.0000 C   0  0  0  0  0  0  0  0  0  0  0  0
   15.0687   10.3725    0.0000 O   0  0  0  0  0  0  0  0  0  0  0  0
   13.1835    8.4609    0.0000 N   0  0  0  0  0  0  0  0  0  0  0  0
   12.0532    9.4470    0.0000 C   0  0  0  0  0  0  0  0  0  0  0  0
   13.2206   10.3889    0.0000 C   0  0  0  0  0  0  0  0  0  0  0  0
   12.9886   11.8709    0.0000 S   0  0  0  0  0  0  0  0  0  0  0  0
   10.6538    9.9871    0.0000 C   0  0  0  0  0  0  0  0  0  0  0  0
   10.6041   11.4863    0.0000 O   0  0  0  0  0  0  0  0  0  0  0  0
    9.4864    9.0452    0.0000 N   0  0  0  0  0  0  0  0  0  0  0  0
    8.0870    9.5853    0.0000 C   0  0  0  0  0  0  0  0  0  0  0  0
    8.1702    8.0876    0.0000 C   0  0  0  0  0  0  0  0  0  0  0  0
    7.8084    6.6319    0.0000 C   0  0  0  0  0  0  0  0  0  0  0  0
    7.0335    5.3475    0.0000 C   0  0  0  0  0  0  0  0  0  0  0  0
    5.9145    4.3486    0.0000 C   0  0  0  0  0  0  0  0  0  0  0  0
    9.1548   10.6387    0.0000 C   0  0  0  0  0  0  0  0  0  0  0  0
    7.5659   10.9919    0.0000 C   0  0  0  0  0  0  0  0  0  0  0  0
    8.8792   11.7167    0.0000 O   0  0  0  0  0  0  0  0  0  0  0  0
    6.6534   12.1824    0.0000 N   0  0  0  0  0  0  0  0  0  0  0  0
    5.4306   13.0511    0.0000 C   0  0  0  0  0  0  0  0  0  0  0  0
    5.2727   14.5428    0.0000 C   0  0  0  0  0  0  0  0  0  0  0  0
    6.4856   15.4253    0.0000 C   0  0  0  0  0  0  0  0  0  0  0  0
    6.3278   16.9170    0.0000 C   0  0  0  0  0  0  0  0  0  0  0  0
    7.9272   15.8398    0.0000 C   0  0  0  0  0  0  0  0  0  0  0  0
    4.0060   13.5207    0.0000 C   0  0  0  0  0  0  0  0  0  0  0  0
    4.2580   14.9994    0.0000 O   0  0  0  0  0  0  0  0  0  0  0  0
    2.5063   13.5496    0.0000 N   0  0  0  0  0  0  0  0  0  0  0  0
    1.0647   13.1351    0.0000 C   0  0  0  0  0  0  0  0  0  0  0  0
   -0.2000   13.9418    0.0000 C   0  0  0  0  0  0  0  0  0  0  0  0
   -0.1337   15.4403    0.0000 C   0  0  0  0  0  0  0  0  0  0  0  0
   -1.3984   16.2470    0.0000 C   0  0  0  0  0  0  0  0  0  0  0  0
    0.4410   16.8258    0.0000 C   0  0  0  0  0  0  0  0  0  0  0  0
   -0.1907   12.3142    0.0000 C   0  0  0  0  0  0  0  0  0  0  0  0
   -1.1896   13.4332    0.0000 O   0  0  0  0  0  0  0  0  0  0  0  0
   -1.1484   11.1596    0.0000 N   0  0  0  0  0  0  0  0  0  0  0  0
   -1.7232    9.7741    0.0000 C   0  0  0  0  0  0  0  0  0  0  0  0
   -3.1423    9.2883    0.0000 C   0  0  0  0  0  0  0  0  0  0  0  0
   -4.2726   10.2744    0.0000 C   0  0  0  0  0  0  0  0  0  0  0  0
   -5.6918    9.7886    0.0000 C   0  0  0  0  0  0  0  0  0  0  0  0
   -6.8221   10.7748    0.0000 O   0  0  0  0  0  0  0  0  0  0  0  0
   -5.9806    8.3167    0.0000 O   0  0  0  0  0  0  0  0  0  0  0  0
   -1.8640    8.2808    0.0000 C   0  0  0  0  0  0  0  0  0  0  0  0
   -3.3617    8.1975    0.0000 O   0  0  0  0  0  0  0  0  0  0  0  0
   -1.5584    6.8122    0.0000 N   0  0  0  0  0  0  0  0  0  0  0  0
   -0.8336    5.4990    0.0000 C   0  0  0  0  0  0  0  0  0  0  0  0
    0.2461    4.4578    0.0000 C   0  0  0  0  0  0  0  0  0  0  0  0
    1.5848    3.7810    0.0000 C   0  0  0  0  0  0  0  0  0  0  0  0
    3.0635    3.5290    0.0000 C   0  0  0  0  0  0  0  0  0  0  0  0
    4.5508    3.7239    0.0000 C   0  0  0  0  0  0  0  0  0  0  0  0
   -2.3287    5.3784    0.0000 C   0  0  0  0  0  0  0  0  0  0  0  0
   -1.3386    4.0866    0.0000 C   0  0  0  0  0  0  0  0  0  0  0  0
   -0.6735    2.7421    0.0000 O   0  0  0  0  0  0  0  0  0  0  0  0
   -2.8143    3.8177    0.0000 N   0  0  0  0  0  0  0  0  0  0  0  0
   -3.3193    2.4053    0.0000 C   0  0  0  0  0  0  0  0  0  0  0  0
   -3.3108    0.9053    0.0000 C   0  0  0  0  0  0  0  0  0  0  0  0
   -4.7950    2.1364    0.0000 C   0  0  0  0  0  0  0  0  0  0  0  0
   -5.7657    3.2800    0.0000 O   0  0  0  0  0  0  0  0  0  0  0  0
   -5.3000    0.7240    0.0000 N   0  0  0  0  0  0  0  0  0  0  0  0
   -6.7757    0.4551    0.0000 C   0  0  0  0  0  0  0  0  0  0  0  0
   -8.2544    0.7072    0.0000 C   0  0  0  0  0  0  0  0  0  0  0  0
   -8.6001    2.1668    0.0000 C   0  0  0  0  0  0  0  0  0  0  0  0
   -9.7301    0.4383    0.0000 C   0  0  0  0  0  0  0  0  0  0  0  0
  -10.7008    1.5819    0.0000 C   0  0  0  0  0  0  0  0  0  0  0  0
   -7.2807   -0.9573    0.0000 C   0  0  0  0  0  0  0  0  0  0  0  0
   -6.3100   -2.1009    0.0000 O   0  0  0  0  0  0  0  0  0  0  0  0
   -8.7565   -1.2262    0.0000 N   0  0  0  0  0  0  0  0  0  0  0  0
   -9.2615   -2.6386    0.0000 C   0  0  0  0  0  0  0  0  0  0  0  0
   -9.2529   -4.1386    0.0000 C   0  0  0  0  0  0  0  0  0  0  0  0
  -10.5477   -4.8960    0.0000 C   0  0  0  0  0  0  0  0  0  0  0  0
  -10.5392   -6.3960    0.0000 C   0  0  0  0  0  0  0  0  0  0  0  0
  -11.8339   -7.1533    0.0000 N   0  0  0  0  0  0  0  0  0  0  0  0
   -9.2359   -7.1386    0.0000 O   0  0  0  0  0  0  0  0  0  0  0  0
  -10.7372   -2.9075    0.0000 C   0  0  0  0  0  0  0  0  0  0  0  0
  -11.7079   -1.7639    0.0000 O   0  0  0  0  0  0  0  0  0  0  0  0
  -11.2422   -4.3199    0.0000 N   0  0  0  0  0  0  0  0  0  0  0  0
  -12.7179   -4.5888    0.0000 C   0  0  0  0  0  0  0  0  0  0  0  0
  -14.0126   -5.3462    0.0000 C   0  0  0  0  0  0  0  0  0  0  0  0
  -14.0041   -6.8462    0.0000 C   0  0  0  0  0  0  0  0  0  0  0  0
  -15.2989   -7.6035    0.0000 O   0  0  0  0  0  0  0  0  0  0  0  0
  -12.7008   -7.5888    0.0000 O   0  0  0  0  0  0  0  0  0  0  0  0
  -13.6886   -3.4452    0.0000 C   0  0  0  0  0  0  0  0  0  0  0  0
  -13.1836   -2.0328    0.0000 O   0  0  0  0  0  0  0  0  0  0  0  0
  -15.1643   -3.7141    0.0000 N   0  0  0  0  0  0  0  0  0  0  0  0
  -16.1350   -2.5705    0.0000 C   0  0  0  0  0  0  0  0  0  0  0  0
  -16.6560   -1.1639    0.0000 C   0  0  0  0  0  0  0  0  0  0  0  0
  -16.6645    0.3360    0.0000 O   0  0  0  0  0  0  0  0  0  0  0  0
  -18.0929   -0.7335    0.0000 C   0  0  0  0  0  0  0  0  0  0  0  0
  -17.6107   -2.8394    0.0000 C   0  0  0  0  0  0  0  0  0  0  0  0
  -18.1157   -4.2518    0.0000 O   0  0  0  0  0  0  0  0  0  0  0  0
  -18.5814   -1.6958    0.0000 N   0  0  0  0  0  0  0  0  0  0  0  0
  -20.0571   -1.9647    0.0000 C   0  0  0  0  0  0  0  0  0  0  0  0
  -21.3519   -2.7221    0.0000 C   0  0  0  0  0  0  0  0  0  0  0  0
  -21.3433   -4.2221    0.0000 C   0  0  0  0  0  0  0  0  0  0  0  0
  -21.0278   -0.8211    0.0000 C   0  0  0  0  0  0  0  0  0  0  0  0
  -20.5228    0.5913    0.0000 O   0  0  0  0  0  0  0  0  0  0  0  0
  -22.5035   -1.0900    0.0000 N   0  0  0  0  0  0  0  0  0  0  0  0
  -23.4742    0.0536    0.0000 C   0  0  0  0  0  0  0  0  0  0  0  0
  -23.9952    1.4602    0.0000 C   0  0  0  0  0  0  0  0  0  0  0  0
  -25.4739    1.7122    0.0000 C   0  0  0  0  0  0  0  0  0  0  0  0
  -25.9949    3.1188    0.0000 C   0  0  0  0  0  0  0  0  0  0  0  0
  -27.4736    3.3709    0.0000 N   0  0  0  0  0  0  0  0  0  0  0  0
  -27.9946    4.7775    0.0000 C   0  0  0  0  0  0  0  0  0  0  0  0
  -29.4733    5.0296    0.0000 N   0  0  0  0  0  0  0  0  0  0  0  0
  -27.0370    5.9320    0.0000 N   0  0  0  0  0  0  0  0  0  0  0  0
  -24.9499   -0.2153    0.0000 C   0  0  0  0  0  0  0  0  0  0  0  0
  -25.4549   -1.6277    0.0000 O   0  0  0  0  0  0  0  0  0  0  0  0
  -25.9206    0.9283    0.0000 N   0  0  0  0  0  0  0  0  0  0  0  0
  -27.3963    0.6594    0.0000 C   0  0  0  0  0  0  0  0  0  0  0  0
  -28.8750    0.9115    0.0000 C   0  0  0  0  0  0  0  0  0  0  0  0
  -29.3960    2.3181    0.0000 C   0  0  0  0  0  0  0  0  0  0  0  0
  -30.8747    2.5701    0.0000 C   0  0  0  0  0  0  0  0  0  0  0  0
  -31.3957    3.9767    0.0000 O   0  0  0  0  0  0  0  0  0  0  0  0
  -31.8323    1.4156    0.0000 O   0  0  0  0  0  0  0  0  0  0  0  0
  -27.9013   -0.7530    0.0000 C   0  0  0  0  0  0  0  0  0  0  0  0
  -26.9306   -1.8966    0.0000 O   0  0  0  0  0  0  0  0  0  0  0  0
  -29.3770   -1.0219    0.0000 N   0  0  0  0  0  0  0  0  0  0  0  0
  -29.8820   -2.4343    0.0000 C   0  0  0  0  0  0  0  0  0  0  0  0
  -29.8735   -3.9343    0.0000 C   0  0  0  0  0  0  0  0  0  0  0  0
  -31.1683   -4.6917    0.0000 C   0  0  0  0  0  0  0  0  0  0  0  0
  -31.1597   -6.1917    0.0000 C   0  0  0  0  0  0  0  0  0  0  0  0
  -32.4545   -6.9490    0.0000 N   0  0  0  0  0  0  0  0  0  0  0  0
  -29.8565   -6.9343    0.0000 O   0  0  0  0  0  0  0  0  0  0  0  0
  -31.3577   -2.7032    0.0000 C   0  0  0  0  0  0  0  0  0  0  0  0
  -32.0312   -4.0435    0.0000 O   0  0  0  0  0  0  0  0  0  0  0  0
  -32.3284   -1.5596    0.0000 O   0  0  0  0  0  0  0  0  0  0  0  0
    3.4800   -1.4950    0.0000 H   0  0  0  0  0  0  0  0  0  0  0  0
    0.9132   -1.8968    0.0000 H   0  0  0  0  0  0  0  0  0  0  0  0
    3.9637   -3.4330    0.0000 H   0  0  0  0  0  0  0  0  0  0  0  0
    3.2695   -5.2320    0.0000 H   0  0  0  0  0  0  0  0  0  0  0  0
    0.6523   -3.5475    0.0000 H   0  0  0  0  0  0  0  0  0  0  0  0
   -0.0420   -5.3465    0.0000 H   0  0  0  0  0  0  0  0  0  0  0  0
   -0.8814   -6.5779    0.0000 H   0  0  0  0  0  0  0  0  0  0  0  0
    2.0929   -8.2807    0.0000 H   0  0  0  0  0  0  0  0  0  0  0  0
   -2.2451   -9.2234    0.0000 H   0  0  0  0  0  0  0  0  0  0  0  0
   -0.5940  -10.2196    0.0000 H   0  0  0  0  0  0  0  0  0  0  0  0
   -3.0505   -7.3955    0.0000 H   0  0  0  0  0  0  0  0  0  0  0  0
    3.6732   -8.8242    0.0000 H   0  0  0  0  0  0  0  0  0  0  0  0
    4.7906  -10.4799    0.0000 H   0  0  0  0  0  0  0  0  0  0  0  0
    0.8612  -12.0464    0.0000 H   0  0  0  0  0  0  0  0  0  0  0  0
    1.7785  -10.9003    0.0000 H   0  0  0  0  0  0  0  0  0  0  0  0
    2.1472  -14.8615    0.0000 H   0  0  0  0  0  0  0  0  0  0  0  0
    3.4149  -13.4084    0.0000 H   0  0  0  0  0  0  0  0  0  0  0  0
    6.4615  -10.4502    0.0000 H   0  0  0  0  0  0  0  0  0  0  0  0
    8.0778  -11.6239    0.0000 H   0  0  0  0  0  0  0  0  0  0  0  0
    4.9211  -14.4398    0.0000 H   0  0  0  0  0  0  0  0  0  0  0  0
    5.3912  -13.0491    0.0000 H   0  0  0  0  0  0  0  0  0  0  0  0
    7.0924  -16.6453    0.0000 H   0  0  0  0  0  0  0  0  0  0  0  0
    7.7867  -14.8463    0.0000 H   0  0  0  0  0  0  0  0  0  0  0  0
    9.6378  -11.0245    0.0000 H   0  0  0  0  0  0  0  0  0  0  0  0
   11.5580  -11.5746    0.0000 H   0  0  0  0  0  0  0  0  0  0  0  0
    9.5487  -15.0938    0.0000 H   0  0  0  0  0  0  0  0  0  0  0  0
    9.5208  -13.8327    0.0000 H   0  0  0  0  0  0  0  0  0  0  0  0
   12.3866  -14.7022    0.0000 H   0  0  0  0  0  0  0  0  0  0  0  0
   11.0037  -18.3203    0.0000 H   0  0  0  0  0  0  0  0  0  0  0  0
    9.2769  -17.8703    0.0000 H   0  0  0  0  0  0  0  0  0  0  0  0
    9.2022  -16.0875    0.0000 H   0  0  0  0  0  0  0  0  0  0  0  0
   12.2422  -18.1264    0.0000 H   0  0  0  0  0  0  0  0  0  0  0  0
   13.7489  -17.1703    0.0000 H   0  0  0  0  0  0  0  0  0  0  0  0
   13.0468  -15.4743    0.0000 H   0  0  0  0  0  0  0  0  0  0  0  0
   12.8189  -10.4778    0.0000 H   0  0  0  0  0  0  0  0  0  0  0  0
   14.8115  -10.3379    0.0000 H   0  0  0  0  0  0  0  0  0  0  0  0
   14.1421  -14.6610    0.0000 H   0  0  0  0  0  0  0  0  0  0  0  0
   13.4150  -13.1249    0.0000 H   0  0  0  0  0  0  0  0  0  0  0  0
   15.5961  -15.7498    0.0000 H   0  0  0  0  0  0  0  0  0  0  0  0
   17.2843  -14.8180    0.0000 H   0  0  0  0  0  0  0  0  0  0  0  0
   16.6598  -12.9936    0.0000 H   0  0  0  0  0  0  0  0  0  0  0  0
   15.6212   -8.8760    0.0000 H   0  0  0  0  0  0  0  0  0  0  0  0
   17.4458   -8.0631    0.0000 H   0  0  0  0  0  0  0  0  0  0  0  0
   17.3587  -11.9355    0.0000 H   0  0  0  0  0  0  0  0  0  0  0  0
   19.1275  -12.1715    0.0000 H   0  0  0  0  0  0  0  0  0  0  0  0
   19.8218  -10.3725    0.0000 H   0  0  0  0  0  0  0  0  0  0  0  0
   17.7066   -6.4124    0.0000 H   0  0  0  0  0  0  0  0  0  0  0  0
   19.1432   -5.0245    0.0000 H   0  0  0  0  0  0  0  0  0  0  0  0
   21.4092   -8.7665    0.0000 H   0  0  0  0  0  0  0  0  0  0  0  0
   19.7389   -8.1386    0.0000 H   0  0  0  0  0  0  0  0  0  0  0  0
   23.9172   -6.8669    0.0000 H   0  0  0  0  0  0  0  0  0  0  0  0
   22.2660   -5.8708    0.0000 H   0  0  0  0  0  0  0  0  0  0  0  0
   18.8237   -3.3841    0.0000 H   0  0  0  0  0  0  0  0  0  0  0  0
   19.6989   -1.5886    0.0000 H   0  0  0  0  0  0  0  0  0  0  0  0
   22.1213   -4.6109    0.0000 H   0  0  0  0  0  0  0  0  0  0  0  0
   23.6280   -3.6548    0.0000 H   0  0  0  0  0  0  0  0  0  0  0  0
   23.0035   -1.8304    0.0000 H   0  0  0  0  0  0  0  0  0  0  0  0
   18.8377   -0.1564    0.0000 H   0  0  0  0  0  0  0  0  0  0  0  0
   19.0460    1.8302    0.0000 H   0  0  0  0  0  0  0  0  0  0  0  0
   23.1872    0.4203    0.0000 H   0  0  0  0  0  0  0  0  0  0  0  0
   21.5041   -0.1724    0.0000 H   0  0  0  0  0  0  0  0  0  0  0  0
   22.0158    4.8001    0.0000 H   0  0  0  0  0  0  0  0  0  0  0  0
   24.8289    5.6844    0.0000 H   0  0  0  0  0  0  0  0  0  0  0  0
   26.8780    3.1447    0.0000 H   0  0  0  0  0  0  0  0  0  0  0  0
   17.7469    2.8814    0.0000 H   0  0  0  0  0  0  0  0  0  0  0  0
   17.2632    4.8195    0.0000 H   0  0  0  0  0  0  0  0  0  0  0  0
   21.6706    5.0910    0.0000 H   0  0  0  0  0  0  0  0  0  0  0  0
   20.2580    3.7783    0.0000 H   0  0  0  0  0  0  0  0  0  0  0  0
   23.2315    7.8163    0.0000 H   0  0  0  0  0  0  0  0  0  0  0  0
   23.1815    5.2187    0.0000 H   0  0  0  0  0  0  0  0  0  0  0  0
   15.6829    5.3630    0.0000 H   0  0  0  0  0  0  0  0  0  0  0  0
   14.5655    7.0187    0.0000 H   0  0  0  0  0  0  0  0  0  0  0  0
   18.6518    8.4175    0.0000 H   0  0  0  0  0  0  0  0  0  0  0  0
   17.7358    7.0646    0.0000 H   0  0  0  0  0  0  0  0  0  0  0  0
   15.9412    9.9472    0.0000 H   0  0  0  0  0  0  0  0  0  0  0  0
   19.3262   11.8299    0.0000 H   0  0  0  0  0  0  0  0  0  0  0  0
   20.3598   10.3753    0.0000 H   0  0  0  0  0  0  0  0  0  0  0  0
   19.2710    8.9615    0.0000 H   0  0  0  0  0  0  0  0  0  0  0  0
   18.2528   12.4775    0.0000 H   0  0  0  0  0  0  0  0  0  0  0  0
   16.4841   12.7135    0.0000 H   0  0  0  0  0  0  0  0  0  0  0  0
   15.7898   10.9145    0.0000 H   0  0  0  0  0  0  0  0  0  0  0  0
   12.8946    6.9890    0.0000 H   0  0  0  0  0  0  0  0  0  0  0  0
   11.2783    8.1627    0.0000 H   0  0  0  0  0  0  0  0  0  0  0  0
   14.5699   11.0441    0.0000 H   0  0  0  0  0  0  0  0  0  0  0  0
   14.2417    9.2901    0.0000 H   0  0  0  0  0  0  0  0  0  0  0  0
   14.1560   12.8128    0.0000 H   0  0  0  0  0  0  0  0  0  0  0  0
   10.0700    7.6634    0.0000 H   0  0  0  0  0  0  0  0  0  0  0  0
    9.6290    8.4369    0.0000 H   0  0  0  0  0  0  0  0  0  0  0  0
    9.3483    7.1590    0.0000 H   0  0  0  0  0  0  0  0  0  0  0  0
    9.3053    6.5357    0.0000 H   0  0  0  0  0  0  0  0  0  0  0  0
    8.8045    5.5104    0.0000 H   0  0  0  0  0  0  0  0  0  0  0  0
    8.4901    4.9893    0.0000 H   0  0  0  0  0  0  0  0  0  0  0  0
    7.4838    3.9167    0.0000 H   0  0  0  0  0  0  0  0  0  0  0  0
    6.7355    3.0932    0.0000 H   0  0  0  0  0  0  0  0  0  0  0  0
   10.6543   10.6025    0.0000 H   0  0  0  0  0  0  0  0  0  0  0  0
    9.6279   12.0622    0.0000 H   0  0  0  0  0  0  0  0  0  0  0  0
    8.1785   11.7775    0.0000 H   0  0  0  0  0  0  0  0  0  0  0  0
    7.6947   13.2622    0.0000 H   0  0  0  0  0  0  0  0  0  0  0  0
    6.8080   13.6450    0.0000 H   0  0  0  0  0  0  0  0  0  0  0  0
    4.4549   15.8002    0.0000 H   0  0  0  0  0  0  0  0  0  0  0  0
    3.7737   14.4895    0.0000 H   0  0  0  0  0  0  0  0  0  0  0  0
    7.3035   14.1679    0.0000 H   0  0  0  0  0  0  0  0  0  0  0  0
    7.4241   17.9408    0.0000 H   0  0  0  0  0  0  0  0  0  0  0  0
    5.6693   18.2647    0.0000 H   0  0  0  0  0  0  0  0  0  0  0  0
    4.8464   16.6813    0.0000 H   0  0  0  0  0  0  0  0  0  0  0  0
    8.4639   17.2405    0.0000 H   0  0  0  0  0  0  0  0  0  0  0  0
    9.4237   15.7362    0.0000 H   0  0  0  0  0  0  0  0  0  0  0  0
    8.0851   14.3481    0.0000 H   0  0  0  0  0  0  0  0  0  0  0  0
    2.3113   15.0369    0.0000 H   0  0  0  0  0  0  0  0  0  0  0  0
    1.4591   14.5823    0.0000 H   0  0  0  0  0  0  0  0  0  0  0  0
   -1.6930   14.0863    0.0000 H   0  0  0  0  0  0  0  0  0  0  0  0
   -1.0930   12.7365    0.0000 H   0  0  0  0  0  0  0  0  0  0  0  0
    1.3593   15.2958    0.0000 H   0  0  0  0  0  0  0  0  0  0  0  0
   -1.5153   17.7424    0.0000 H   0  0  0  0  0  0  0  0  0  0  0  0
   -2.8627   16.5724    0.0000 H   0  0  0  0  0  0  0  0  0  0  0  0
   -2.1378   14.9419    0.0000 H   0  0  0  0  0  0  0  0  0  0  0  0
   -0.3195   18.1187    0.0000 H   0  0  0  0  0  0  0  0  0  0  0  0
    1.4550   17.9312    0.0000 H   0  0  0  0  0  0  0  0  0  0  0  0
    1.7057   16.0192    0.0000 H   0  0  0  0  0  0  0  0  0  0  0  0
   -2.4327   11.9345    0.0000 H   0  0  0  0  0  0  0  0  0  0  0  0
   -2.6087   10.9849    0.0000 H   0  0  0  0  0  0  0  0  0  0  0  0
   -4.3097    8.3464    0.0000 H   0  0  0  0  0  0  0  0  0  0  0  0
   -2.7568    7.8387    0.0000 H   0  0  0  0  0  0  0  0  0  0  0  0
   -4.9975   11.5877    0.0000 H   0  0  0  0  0  0  0  0  0  0  0  0
   -3.2287   11.3516    0.0000 H   0  0  0  0  0  0  0  0  0  0  0  0
   -2.9650    6.2912    0.0000 H   0  0  0  0  0  0  0  0  0  0  0  0
    0.1799    2.9592    0.0000 H   0  0  0  0  0  0  0  0  0  0  0  0
   -0.9711    3.5812    0.0000 H   0  0  0  0  0  0  0  0  0  0  0  0
    1.7835    2.2942    0.0000 H   0  0  0  0  0  0  0  0  0  0  0  0
    0.6800    2.5847    0.0000 H   0  0  0  0  0  0  0  0  0  0  0  0
    3.8529    2.2535    0.0000 H   0  0  0  0  0  0  0  0  0  0  0  0
    2.3835    2.1920    0.0000 H   0  0  0  0  0  0  0  0  0  0  0  0
    4.9652    2.2823    0.0000 H   0  0  0  0  0  0  0  0  0  0  0  0
   -3.2807    4.2192    0.0000 H   0  0  0  0  0  0  0  0  0  0  0  0
   -3.7157    5.9498    0.0000 H   0  0  0  0  0  0  0  0  0  0  0  0
   -2.5534    6.8615    0.0000 H   0  0  0  0  0  0  0  0  0  0  0  0
   -3.9172    4.8344    0.0000 H   0  0  0  0  0  0  0  0  0  0  0  0
   -1.8406    2.1532    0.0000 H   0  0  0  0  0  0  0  0  0  0  0  0
   -4.2480   -0.2659    0.0000 H   0  0  0  0  0  0  0  0  0  0  0  0
   -2.7897   -0.5013    0.0000 H   0  0  0  0  0  0  0  0  0  0  0  0
   -1.8351    1.1741    0.0000 H   0  0  0  0  0  0  0  0  0  0  0  0
   -4.4760   -0.5294    0.0000 H   0  0  0  0  0  0  0  0  0  0  0  0
   -6.6014    1.9449    0.0000 H   0  0  0  0  0  0  0  0  0  0  0  0
   -8.6091   -0.7503    0.0000 H   0  0  0  0  0  0  0  0  0  0  0  0
  -10.2175    2.5660    0.0000 H   0  0  0  0  0  0  0  0  0  0  0  0
   -8.7840    3.6137    0.0000 H   0  0  0  0  0  0  0  0  0  0  0  0
   -7.3435    2.5605    0.0000 H   0  0  0  0  0  0  0  0  0  0  0  0
  -11.0249   -0.3191    0.0000 H   0  0  0  0  0  0  0  0  0  0  0  0
   -9.5649   -1.0526    0.0000 H   0  0  0  0  0  0  0  0  0  0  0  0
  -12.1765    1.3130    0.0000 H   0  0  0  0  0  0  0  0  0  0  0  0
  -11.2218    2.9885    0.0000 H   0  0  0  0  0  0  0  0  0  0  0  0
   -9.6278    2.6300    0.0000 H   0  0  0  0  0  0  0  0  0  0  0  0
   -9.9750   -0.3515    0.0000 H   0  0  0  0  0  0  0  0  0  0  0  0
   -7.7828   -2.8907    0.0000 H   0  0  0  0  0  0  0  0  0  0  0  0
   -8.7319   -5.5452    0.0000 H   0  0  0  0  0  0  0  0  0  0  0  0
   -7.7772   -3.8698    0.0000 H   0  0  0  0  0  0  0  0  0  0  0  0
  -11.9796   -5.3427    0.0000 H   0  0  0  0  0  0  0  0  0  0  0  0
  -11.6682   -3.8988    0.0000 H   0  0  0  0  0  0  0  0  0  0  0  0
  -11.8254   -8.6533    0.0000 H   0  0  0  0  0  0  0  0  0  0  0  0
  -13.1372   -6.4107    0.0000 H   0  0  0  0  0  0  0  0  0  0  0  0
  -10.5770   -5.6644    0.0000 H   0  0  0  0  0  0  0  0  0  0  0  0
  -12.3722   -6.0484    0.0000 H   0  0  0  0  0  0  0  0  0  0  0  0
  -15.4446   -5.7929    0.0000 H   0  0  0  0  0  0  0  0  0  0  0  0
  -14.8585   -4.1075    0.0000 H   0  0  0  0  0  0  0  0  0  0  0  0
  -15.8377   -5.0544    0.0000 H   0  0  0  0  0  0  0  0  0  0  0  0
  -14.8402   -1.8132    0.0000 H   0  0  0  0  0  0  0  0  0  0  0  0
  -15.1803   -0.8951    0.0000 H   0  0  0  0  0  0  0  0  0  0  0  0
  -17.8676    1.2320    0.0000 H   0  0  0  0  0  0  0  0  0  0  0  0
  -18.8233    0.4207    0.0000 H   0  0  0  0  0  0  0  0  0  0  0  0
  -19.6104   -1.1807    0.0000 H   0  0  0  0  0  0  0  0  0  0  0  0
  -18.8315   -2.2402    0.0000 H   0  0  0  0  0  0  0  0  0  0  0  0
  -18.2523   -0.2324    0.0000 H   0  0  0  0  0  0  0  0  0  0  0  0
  -19.3685   -3.2973    0.0000 H   0  0  0  0  0  0  0  0  0  0  0  0
  -22.7838   -3.1688    0.0000 H   0  0  0  0  0  0  0  0  0  0  0  0
  -22.1978   -1.4834    0.0000 H   0  0  0  0  0  0  0  0  0  0  0  0
  -22.6381   -4.9794    0.0000 H   0  0  0  0  0  0  0  0  0  0  0  0
  -20.8223   -5.6287    0.0000 H   0  0  0  0  0  0  0  0  0  0  0  0
  -19.8458   -4.1351    0.0000 H   0  0  0  0  0  0  0  0  0  0  0  0
  -23.1769   -2.4303    0.0000 H   0  0  0  0  0  0  0  0  0  0  0  0
  -22.1794    0.8109    0.0000 H   0  0  0  0  0  0  0  0  0  0  0  0
  -23.8209    2.9500    0.0000 H   0  0  0  0  0  0  0  0  0  0  0  0
  -22.5195    1.7290    0.0000 H   0  0  0  0  0  0  0  0  0  0  0  0
  -26.9714    1.6253    0.0000 H   0  0  0  0  0  0  0  0  0  0  0  0
  -26.1707    0.3839    0.0000 H   0  0  0  0  0  0  0  0  0  0  0  0
  -26.0035    4.6188    0.0000 H   0  0  0  0  0  0  0  0  0  0  0  0
  -24.5630    3.5656    0.0000 H   0  0  0  0  0  0  0  0  0  0  0  0
  -28.2834    2.1082    0.0000 H   0  0  0  0  0  0  0  0  0  0  0  0
  -29.9943    6.4362    0.0000 H   0  0  0  0  0  0  0  0  0  0  0  0
  -30.4309    3.8750    0.0000 H   0  0  0  0  0  0  0  0  0  0  0  0
  -27.5580    7.3386    0.0000 H   0  0  0  0  0  0  0  0  0  0  0  0
  -25.5583    5.6800    0.0000 H   0  0  0  0  0  0  0  0  0  0  0  0
  -25.7724    2.4209    0.0000 H   0  0  0  0  0  0  0  0  0  0  0  0
  -27.4048    2.1594    0.0000 H   0  0  0  0  0  0  0  0  0  0  0  0
  -30.3725    0.8245    0.0000 H   0  0  0  0  0  0  0  0  0  0  0  0
  -29.2297   -0.5460    0.0000 H   0  0  0  0  0  0  0  0  0  0  0  0
  -29.4045    3.8180    0.0000 H   0  0  0  0  0  0  0  0  0  0  0  0
  -27.8991    2.2219    0.0000 H   0  0  0  0  0  0  0  0  0  0  0  0
  -30.4799   -0.0052    0.0000 H   0  0  0  0  0  0  0  0  0  0  0  0
  -28.4034   -2.6864    0.0000 H   0  0  0  0  0  0  0  0  0  0  0  0
  -29.3525   -5.3409    0.0000 H   0  0  0  0  0  0  0  0  0  0  0  0
  -28.3978   -3.6654    0.0000 H   0  0  0  0  0  0  0  0  0  0  0  0
  -32.6440   -4.9606    0.0000 H   0  0  0  0  0  0  0  0  0  0  0  0
  -32.1589   -3.5653    0.0000 H   0  0  0  0  0  0  0  0  0  0  0  0
  -32.4460   -8.4490    0.0000 H   0  0  0  0  0  0  0  0  0  0  0  0
  -33.7578   -6.2064    0.0000 H   0  0  0  0  0  0  0  0  0  0  0  0
  1  2  1  0
  2  3  1  0
  3  4  1  0
  4  5  2  0
  4  6  1  0
  6  7  1  0
  7  8  1  0
  8  9  1  0
  7 10  1  0
 10 11  2  0
 10 12  1  0
 12 13  1  0
 13 14  1  0
 14 15  1  0
 15 16  1  0
 16 17  2  0
 16 18  1  0
 13 19  1  0
 19 20  2  0
 19 21  1  0
 21 22  1  0
 22 23  1  0
 23 24  1  0
 24 25  1  0
 25 26  2  0
 25 27  1  0
 22 28  1  0
 28 29  2  0
 28 30  1  0
 30 31  1  0
 31 32  1  0
 32 33  1  0
 33 34  1  0
 33 35  1  0
 31 36  1  0
 36 37  2  0
 36 38  1  0
 38 39  1  0
 39 40  1  0
 40 41  1  0
 39 42  1  0
 42 43  2  0
 42 44  1  0
 44 45  1  0
 45 46  1  0
 45 47  1  0
 47 48  2  0
 47 49  1  0
 49 50  1  0
 50 51  1  0
 51 52  1  0
 52 53  1  0
 53 54  2  0
 53 55  1  0
 50 56  1  0
 56 57  2  0
 56 58  1  0
 58 59  1  0
 59 60  1  0
 59 61  1  0
 61 62  2  0
 61 63  1  0
 63 64  1  0
 64 65  1  0
 65 66  1  0
 66 67  2  0
 67 68  1  0
 68 69  1  0
 69 70  2  0
 64 71  1  0
 71 72  2  0
 71 73  1  0
 73 74  1  0
 74 75  1  0
 75 76  1  0
 76 77  1  0
 76 78  2  0
 74 79  1  0
 79 80  2  0
 79 81  1  0
 81 82  1  0
 82 83  1  0
 83 84  1  0
 84 85  1  0
 84 86  1  0
 82 87  1  0
 87 88  2  0
 87 89  1  0
 89 90  1  0
 90 91  1  0
 91 92  1  0
 90 93  1  0
 93 94  2  0
 93 95  1  0
 96 95  1  1
 96 97  1  0
 97 98  1  0
 98 99  1  0
 99100  1  0
 96101  1  0
 96102  1  0
102103  2  0
102104  1  0
104105  1  0
105106  1  0
106107  1  0
107108  1  0
107109  1  0
105110  1  0
110111  2  0
110112  1  0
112113  1  0
113114  1  0
114115  1  0
115116  1  0
115117  1  0
113118  1  0
118119  2  0
118120  1  0
120121  1  0
121122  1  0
122123  1  0
123124  1  0
124125  2  0
124126  1  0
121127  1  0
127128  2  0
127129  1  0
129130  1  0
130131  1  0
131132  1  0
132133  1  0
133134  1  0
130135  1  0
130136  1  1
136137  2  0
136138  1  0
138139  1  0
139140  1  0
139141  1  0
141142  2  0
141143  1  0
143144  1  0
144145  1  0
145146  1  0
145147  1  0
147148  1  0
144149  1  0
149150  2  0
149151  1  0
151152  1  0
152153  1  0
153154  1  0
154155  1  0
155156  1  0
155157  2  0
152158  1  0
158159  2  0
158160  1  0
160161  1  0
161162  1  0
162163  1  0
163164  2  0
163165  1  0
161166  1  0
166167  2  0
166168  1  0
168169  1  0
169170  1  0
170171  1  0
170172  1  0
169173  1  0
173174  2  0
173175  1  0
175176  1  0
176177  1  0
177178  1  0
176179  1  0
179180  2  0
179181  1  0
181182  1  0
182183  1  0
183184  1  0
184185  1  0
185186  1  0
186187  1  0
187188  2  3
187189  1  0
182190  1  0
190191  2  0
190192  1  0
192193  1  0
193194  1  0
194195  1  0
195196  1  0
196197  2  0
196198  1  0
193199  1  0
199200  2  0
199201  1  0
201202  1  0
202203  1  0
203204  1  0
204205  1  0
205206  1  0
205207  2  0
202208  1  0
208209  2  0
208210  1  0
 70 66  1  0
100134  2  0
  1211  1  0
  1212  1  0
  2213  1  0
  2214  1  0
  3215  1  0
  3216  1  0
  6217  1  0
  7218  1  6
  8219  1  0
  8220  1  0
  9221  1  0
 12222  1  0
 13223  1  6
 14224  1  0
 14225  1  0
 15226  1  0
 15227  1  0
 21228  1  0
 22229  1  6
 23230  1  0
 23231  1  0
 24232  1  0
 24233  1  0
 30234  1  0
 31235  1  6
 32236  1  0
 32237  1  0
 33238  1  0
 34239  1  0
 34240  1  0
 34241  1  0
 35242  1  0
 35243  1  0
 35244  1  0
 38245  1  0
 39246  1  6
 40247  1  0
 40248  1  0
 41249  1  0
 41250  1  0
 41251  1  0
 44252  1  0
 45253  1  6
 46254  1  0
 46255  1  0
 46256  1  0
 49257  1  0
 50258  1  6
 51259  1  0
 51260  1  0
 52261  1  0
 52262  1  0
 58263  1  0
 59264  1  6
 60265  1  0
 60266  1  0
 60267  1  0
 63268  1  0
 64269  1  6
 65270  1  0
 65271  1  0
 67272  1  0
 68273  1  0
 69274  1  0
 73275  1  0
 74276  1  6
 75277  1  0
 75278  1  0
 77279  1  0
 77280  1  0
 81281  1  0
 82282  1  6
 83283  1  0
 83284  1  0
 84285  1  0
 85286  1  0
 85287  1  0
 85288  1  0
 86289  1  0
 86290  1  0
 86291  1  0
 89292  1  0
 90293  1  6
 91294  1  0
 91295  1  0
 92296  1  0
 95297  1  0
 97298  1  0
 97299  1  0
 98300  1  0
 98301  1  0
 99302  1  0
 99303  1  0
100304  1  0
101305  1  0
101306  1  0
101307  1  0
104308  1  0
105309  1  6
106310  1  0
106311  1  0
107312  1  0
108313  1  0
108314  1  0
108315  1  0
109316  1  0
109317  1  0
109318  1  0
112319  1  0
113320  1  6
114321  1  0
114322  1  0
115323  1  0
116324  1  0
116325  1  0
116326  1  0
117327  1  0
117328  1  0
117329  1  0
120330  1  0
121331  1  6
122332  1  0
122333  1  0
123334  1  0
123335  1  0
129336  1  0
131337  1  0
131338  1  0
132339  1  0
132340  1  0
133341  1  0
133342  1  0
134343  1  0
135344  1  0
135345  1  0
135346  1  0
138347  1  0
139348  1  1
140349  1  0
140350  1  0
140351  1  0
143352  1  0
144353  1  6
145354  1  1
146355  1  0
146356  1  0
146357  1  0
147358  1  0
147359  1  0
148360  1  0
148361  1  0
148362  1  0
151363  1  0
152364  1  1
153365  1  0
153366  1  0
154367  1  0
154368  1  0
156369  1  0
156370  1  0
160371  1  0
161372  1  1
162373  1  0
162374  1  0
168375  1  0
169376  1  6
170377  1  6
171378  1  0
172379  1  0
172380  1  0
172381  1  0
175382  1  0
176383  1  1
177384  1  0
177385  1  0
178386  1  0
178387  1  0
178388  1  0
181389  1  0
182390  1  6
183391  1  0
183392  1  0
184393  1  0
184394  1  0
185395  1  0
185396  1  0
186397  1  0
188398  1  0
188399  1  0
189400  1  0
189401  1  0
192402  1  0
193403  1  6
194404  1  0
194405  1  0
195406  1  0
195407  1  0
201408  1  0
202409  1  1
203410  1  0
203411  1  0
204412  1  0
204413  1  0
206414  1  0
206415  1  0
M  CHG  8  18  -1  27  -1  55  -1 126  -1 165  -1 188   1 198  -1 210  -1
M  END
