
     RDKit          2D

258267  0  0  0  0  0  0  0  0999 V2000
   13.4952   -2.1210    0.0000 C   0  0  0  0  0  0  0  0  0  0  0  0
   14.8004   -2.8601    0.0000 N   0  0  0  0  0  0  0  0  0  0  0  0
   14.8129   -4.3601    0.0000 C   0  0  0  0  0  0  0  0  0  0  0  0
   13.5201   -5.1209    0.0000 C   0  0  0  0  0  0  0  0  0  0  0  0
   13.5326   -6.6208    0.0000 C   0  0  0  0  0  0  0  0  0  0  0  0
   14.8379   -7.3600    0.0000 C   0  0  0  0  0  0  0  0  0  0  0  0
   16.1306   -6.5992    0.0000 C   0  0  0  0  0  0  0  0  0  0  0  0
   16.1181   -5.0992    0.0000 C   0  0  0  0  0  0  0  0  0  0  0  0
   17.2536   -7.5936    0.0000 C   0  0  0  0  0  0  0  0  0  0  0  0
   16.6550   -8.9689    0.0000 O   0  0  0  0  0  0  0  0  0  0  0  0
   15.1619   -8.8246    0.0000 C   0  0  0  0  0  0  0  0  0  0  0  0
   14.1676   -9.9476    0.0000 O   0  0  0  0  0  0  0  0  0  0  0  0
   18.2666   -8.6999    0.0000 C   0  0  0  0  0  0  0  0  0  0  0  0
   19.7312   -8.3758    0.0000 C   0  0  0  0  0  0  0  0  0  0  0  0
   20.7441   -9.4821    0.0000 C   0  0  0  0  0  0  0  0  0  0  0  0
   20.2925  -10.9125    0.0000 C   0  0  0  0  0  0  0  0  0  0  0  0
   18.8279  -11.2366    0.0000 C   0  0  0  0  0  0  0  0  0  0  0  0
   17.8150  -10.1303    0.0000 C   0  0  0  0  0  0  0  0  0  0  0  0
   21.3054  -12.0189    0.0000 O   0  0  0  0  0  0  0  0  0  0  0  0
   20.1828   -6.9454    0.0000 O   0  0  0  0  0  0  0  0  0  0  0  0
   19.1698   -5.8391    0.0000 C   0  0  0  0  0  0  0  0  0  0  0  0
   17.7053   -6.1632    0.0000 C   0  0  0  0  0  0  0  0  0  0  0  0
   17.3758   -4.9056    0.0000 C   0  0  0  0  0  0  0  0  0  0  0  0
   17.6167   -4.1427    0.0000 C   0  0  0  0  0  0  0  0  0  0  0  0
   18.3978   -3.9699    0.0000 C   0  0  0  0  0  0  0  0  0  0  0  0
   18.9380   -4.5599    0.0000 C   0  0  0  0  0  0  0  0  0  0  0  0
   19.0602   -1.8720    0.0000 O   0  0  0  0  0  0  0  0  0  0  0  0
   12.2024   -2.8818    0.0000 S   0  0  0  0  0  0  0  0  0  0  0  0
   13.4827   -0.6210    0.0000 N   0  0  0  0  0  0  0  0  0  0  0  0
   12.1774    0.1181    0.0000 C   0  0  0  0  0  0  0  0  0  0  0  0
   12.1649    1.6181    0.0000 C   0  0  0  0  0  0  0  0  0  0  0  0
   10.8597    2.3572    0.0000 C   0  0  0  0  0  0  0  0  0  0  0  0
    9.9255    1.1836    0.0000 O   0  0  0  0  0  0  0  0  0  0  0  0
   10.8472    3.8572    0.0000 N   0  0  0  0  0  0  0  0  0  0  0  0
    9.5420    4.5963    0.0000 C   0  0  0  0  0  0  0  0  0  0  0  0
    9.4050    3.1026    0.0000 C   0  0  0  0  0  0  0  0  0  0  0  0
    8.8339    1.7156    0.0000 C   0  0  0  0  0  0  0  0  0  0  0  0
    7.8793    0.5585    0.0000 C   0  0  0  0  0  0  0  0  0  0  0  0
    6.6261   -0.2658    0.0000 C   0  0  0  0  0  0  0  0  0  0  0  0
   10.7525    5.4821    0.0000 C   0  0  0  0  0  0  0  0  0  0  0  0
    9.2325    6.0641    0.0000 C   0  0  0  0  0  0  0  0  0  0  0  0
   10.6377    6.5888    0.0000 O   0  0  0  0  0  0  0  0  0  0  0  0
    8.5042    7.3754    0.0000 N   0  0  0  0  0  0  0  0  0  0  0  0
    7.4217    8.4138    0.0000 C   0  0  0  0  0  0  0  0  0  0  0  0
    7.4840    9.9125    0.0000 C   0  0  0  0  0  0  0  0  0  0  0  0
    8.8131   10.6079    0.0000 C   0  0  0  0  0  0  0  0  0  0  0  0
    9.0317   12.0919    0.0000 C   0  0  0  0  0  0  0  0  0  0  0  0
   10.5106   12.3425    0.0000 N   0  0  0  0  0  0  0  0  0  0  0  0
   11.2060   11.0135    0.0000 C   0  0  0  0  0  0  0  0  0  0  0  0
   10.1569    9.9414    0.0000 N   0  0  0  0  0  0  0  0  0  0  0  0
    6.0812    9.0869    0.0000 C   0  0  0  0  0  0  0  0  0  0  0  0
    6.5471   10.5128    0.0000 O   0  0  0  0  0  0  0  0  0  0  0  0
    4.6019    9.3351    0.0000 N   0  0  0  0  0  0  0  0  0  0  0  0
    3.1152    9.1362    0.0000 C   0  0  0  0  0  0  0  0  0  0  0  0
    1.9823   10.1193    0.0000 C   0  0  0  0  0  0  0  0  0  0  0  0
    2.2672   11.5920    0.0000 C   0  0  0  0  0  0  0  0  0  0  0  0
    1.1343   12.5751    0.0000 C   0  0  0  0  0  0  0  0  0  0  0  0
    3.0387   12.8784    0.0000 C   0  0  0  0  0  0  0  0  0  0  0  0
    1.7531    8.5079    0.0000 C   0  0  0  0  0  0  0  0  0  0  0  0
    0.9288    9.7611    0.0000 O   0  0  0  0  0  0  0  0  0  0  0  0
    0.6367    7.5060    0.0000 N   0  0  0  0  0  0  0  0  0  0  0  0
   -0.1347    6.2196    0.0000 C   0  0  0  0  0  0  0  0  0  0  0  0
   -1.6097    5.9469    0.0000 C   0  0  0  0  0  0  0  0  0  0  0  0
   -0.4928    4.7630    0.0000 C   0  0  0  0  0  0  0  0  0  0  0  0
   -1.2872    5.1546    0.0000 O   0  0  0  0  0  0  0  0  0  0  0  0
   -0.4055    3.2655    0.0000 N   0  0  0  0  0  0  0  0  0  0  0  0
    0.1192    1.8603    0.0000 C   0  0  0  0  0  0  0  0  0  0  0  0
    1.0349    0.6722    0.0000 C   0  0  0  0  0  0  0  0  0  0  0  0
    2.2600   -0.1932    0.0000 C   0  0  0  0  0  0  0  0  0  0  0  0
    3.6858   -0.6591    0.0000 C   0  0  0  0  0  0  0  0  0  0  0  0
    5.1856   -0.6840    0.0000 C   0  0  0  0  0  0  0  0  0  0  0  0
    0.0544    0.2678    0.0000 C   0  0  0  0  0  0  0  0  0  0  0  0
    0.3546   -1.0658    0.0000 C   0  0  0  0  0  0  0  0  0  0  0  0
    0.3969   -2.4320    0.0000 C   0  0  0  0  0  0  0  0  0  0  0  0
    0.1799   -3.7816    0.0000 C   0  0  0  0  0  0  0  0  0  0  0  0
   -1.2670    2.6469    0.0000 C   0  0  0  0  0  0  0  0  0  0  0  0
    0.4193    4.0598    0.0000 O   0  0  0  0  0  0  0  0  0  0  0  0
   -2.2405    3.6065    0.0000 N   0  0  0  0  0  0  0  0  0  0  0  0
   -3.3780    4.3645    0.0000 C   0  0  0  0  0  0  0  0  0  0  0  0
   -3.1410    6.4783    0.0000 C   0  0  0  0  0  0  0  0  0  0  0  0
   -4.3931    7.3042    0.0000 C   0  0  0  0  0  0  0  0  0  0  0  0
   -4.6384    4.8935    0.0000 C   0  0  0  0  0  0  0  0  0  0  0  0
   -4.2907    6.4565    0.0000 O   0  0  0  0  0  0  0  0  0  0  0  0
   -5.9761    5.1745    0.0000 N   0  0  0  0  0  0  0  0  0  0  0  0
   -7.3429    5.1972    0.0000 C   0  0  0  0  0  0  0  0  0  0  0  0
   -8.6892    4.9608    0.0000 C   0  0  0  0  0  0  0  0  0  0  0  0
   -9.2739    7.0817    0.0000 O   0  0  0  0  0  0  0  0  0  0  0  0
   -9.9665    4.4739    0.0000 N   0  0  0  0  0  0  0  0  0  0  0  0
  -11.1285    3.7541    0.0000 C   0  0  0  0  0  0  0  0  0  0  0  0
  -12.9528    4.8478    0.0000 C   0  0  0  0  0  0  0  0  0  0  0  0
  -13.1888    6.3291    0.0000 C   0  0  0  0  0  0  0  0  0  0  0  0
  -14.5896    6.8655    0.0000 O   0  0  0  0  0  0  0  0  0  0  0  0
  -12.0238    7.2741    0.0000 O   0  0  0  0  0  0  0  0  0  0  0  0
  -12.1333    2.8274    0.0000 C   0  0  0  0  0  0  0  0  0  0  0  0
  -13.8855    4.1518    0.0000 O   0  0  0  0  0  0  0  0  0  0  0  0
  -12.9446    1.7272    0.0000 N   0  0  0  0  0  0  0  0  0  0  0  0
  -13.5330    0.4934    0.0000 C   0  0  0  0  0  0  0  0  0  0  0  0
  -15.6590    0.4272    0.0000 C   0  0  0  0  0  0  0  0  0  0  0  0
  -16.6584    1.5459    0.0000 C   0  0  0  0  0  0  0  0  0  0  0  0
  -16.3408    3.0118    0.0000 C   0  0  0  0  0  0  0  0  0  0  0  0
  -17.6369    3.7669    0.0000 N   0  0  0  0  0  0  0  0  0  0  0  0
  -18.7555    2.7676    0.0000 C   0  0  0  0  0  0  0  0  0  0  0  0
  -20.2466    2.9302    0.0000 C   0  0  0  0  0  0  0  0  0  0  0  0
  -21.1331    1.7202    0.0000 C   0  0  0  0  0  0  0  0  0  0  0  0
  -20.5283    0.3475    0.0000 C   0  0  0  0  0  0  0  0  0  0  0  0
  -19.0372    0.1848    0.0000 C   0  0  0  0  0  0  0  0  0  0  0  0
  -18.1508    1.3949    0.0000 C   0  0  0  0  0  0  0  0  0  0  0  0
  -13.8773   -0.8294    0.0000 C   0  0  0  0  0  0  0  0  0  0  0  0
  -16.0674   -0.6625    0.0000 O   0  0  0  0  0  0  0  0  0  0  0  0
  -13.9650   -2.1935    0.0000 N   0  0  0  0  0  0  0  0  0  0  0  0
  -13.7929   -3.5496    0.0000 C   0  0  0  0  0  0  0  0  0  0  0  0
  -15.5457   -4.7547    0.0000 C   0  0  0  0  0  0  0  0  0  0  0  0
  -16.9911   -4.3539    0.0000 C   0  0  0  0  0  0  0  0  0  0  0  0
  -18.0610   -5.4053    0.0000 N   0  0  0  0  0  0  0  0  0  0  0  0
  -17.3668   -2.9017    0.0000 O   0  0  0  0  0  0  0  0  0  0  0  0
  -13.3674   -4.8486    0.0000 C   0  0  0  0  0  0  0  0  0  0  0  0
  -15.3000   -5.8922    0.0000 O   0  0  0  0  0  0  0  0  0  0  0  0
  -12.7037   -6.0435    0.0000 N   0  0  0  0  0  0  0  0  0  0  0  0
  -11.8258   -7.0913    0.0000 C   0  0  0  0  0  0  0  0  0  0  0  0
  -12.6488   -9.0527    0.0000 C   0  0  0  0  0  0  0  0  0  0  0  0
  -14.0814   -9.4971    0.0000 C   0  0  0  0  0  0  0  0  0  0  0  0
  -14.4130  -10.9599    0.0000 O   0  0  0  0  0  0  0  0  0  0  0  0
  -15.1826   -8.4785    0.0000 O   0  0  0  0  0  0  0  0  0  0  0  0
  -10.7655   -7.9540    0.0000 C   0  0  0  0  0  0  0  0  0  0  0  0
  -11.8271   -9.8768    0.0000 O   0  0  0  0  0  0  0  0  0  0  0  0
   -9.5611   -8.6005    0.0000 N   0  0  0  0  0  0  0  0  0  0  0  0
   -8.2561   -9.0073    0.0000 C   0  0  0  0  0  0  0  0  0  0  0  0
   -6.8978   -9.1598    0.0000 C   0  0  0  0  0  0  0  0  0  0  0  0
   -5.5351   -9.0525    0.0000 C   0  0  0  0  0  0  0  0  0  0  0  0
   -4.2173   -8.6892    0.0000 C   0  0  0  0  0  0  0  0  0  0  0  0
   -2.9921   -8.0831    0.0000 C   0  0  0  0  0  0  0  0  0  0  0  0
   -1.9037   -7.2561    0.0000 C   0  0  0  0  0  0  0  0  0  0  0  0
   -0.9916   -6.2381    0.0000 C   0  0  0  0  0  0  0  0  0  0  0  0
   -0.2885   -5.0658    0.0000 C   0  0  0  0  0  0  0  0  0  0  0  0
   -9.4359  -10.7772    0.0000 C   0  0  0  0  0  0  0  0  0  0  0  0
   -7.8880  -11.1023    0.0000 C   0  0  0  0  0  0  0  0  0  0  0  0
   -8.7059  -12.3597    0.0000 O   0  0  0  0  0  0  0  0  0  0  0  0
   -6.5182  -11.7135    0.0000 O   0  0  0  0  0  0  0  0  0  0  0  0
   15.9908   -1.9474    0.0000 H   0  0  0  0  0  0  0  0  0  0  0  0
   12.2149   -4.3817    0.0000 H   0  0  0  0  0  0  0  0  0  0  0  0
   12.2399   -7.3816    0.0000 H   0  0  0  0  0  0  0  0  0  0  0  0
   16.7501   -4.4786    0.0000 H   0  0  0  0  0  0  0  0  0  0  0  0
   22.2087   -9.1581    0.0000 H   0  0  0  0  0  0  0  0  0  0  0  0
   18.3763  -12.6670    0.0000 H   0  0  0  0  0  0  0  0  0  0  0  0
   16.3504  -10.4544    0.0000 H   0  0  0  0  0  0  0  0  0  0  0  0
   20.8538  -13.4493    0.0000 H   0  0  0  0  0  0  0  0  0  0  0  0
   15.2278   -5.3809    0.0000 H   0  0  0  0  0  0  0  0  0  0  0  0
   16.2734   -2.4049    0.0000 H   0  0  0  0  0  0  0  0  0  0  0  0
   21.0861   -4.0846    0.0000 H   0  0  0  0  0  0  0  0  0  0  0  0
   20.5247   -1.5479    0.0000 H   0  0  0  0  0  0  0  0  0  0  0  0
   14.7754    0.1398    0.0000 H   0  0  0  0  0  0  0  0  0  0  0  0
   11.6761   -1.2956    0.0000 H   0  0  0  0  0  0  0  0  0  0  0  0
   10.6981    0.3663    0.0000 H   0  0  0  0  0  0  0  0  0  0  0  0
   13.6443    1.3699    0.0000 H   0  0  0  0  0  0  0  0  0  0  0  0
   12.6662    3.0318    0.0000 H   0  0  0  0  0  0  0  0  0  0  0  0
   12.2231    4.4547    0.0000 H   0  0  0  0  0  0  0  0  0  0  0  0
   10.8992    3.2345    0.0000 H   0  0  0  0  0  0  0  0  0  0  0  0
   10.2938    1.8942    0.0000 H   0  0  0  0  0  0  0  0  0  0  0  0
   10.1810    1.0557    0.0000 H   0  0  0  0  0  0  0  0  0  0  0  0
    9.6551    0.4603    0.0000 H   0  0  0  0  0  0  0  0  0  0  0  0
    9.2678   -0.0092    0.0000 H   0  0  0  0  0  0  0  0  0  0  0  0
    8.1153   -0.9228    0.0000 H   0  0  0  0  0  0  0  0  0  0  0  0
    7.2544   -1.6278    0.0000 H   0  0  0  0  0  0  0  0  0  0  0  0
   12.1885    5.0483    0.0000 H   0  0  0  0  0  0  0  0  0  0  0  0
   11.5872    6.7284    0.0000 H   0  0  0  0  0  0  0  0  0  0  0  0
    9.9535    6.7515    0.0000 H   0  0  0  0  0  0  0  0  0  0  0  0
    9.6923    8.2910    0.0000 H   0  0  0  0  0  0  0  0  0  0  0  0
    8.8134    8.9734    0.0000 H   0  0  0  0  0  0  0  0  0  0  0  0
    7.0299   11.3421    0.0000 H   0  0  0  0  0  0  0  0  0  0  0  0
    5.9933   10.0792    0.0000 H   0  0  0  0  0  0  0  0  0  0  0  0
    7.9596   13.1410    0.0000 H   0  0  0  0  0  0  0  0  0  0  0  0
   11.1771   13.6863    0.0000 H   0  0  0  0  0  0  0  0  0  0  0  0
   12.6900   10.7949    0.0000 H   0  0  0  0  0  0  0  0  0  0  0  0
    4.6268   10.8349    0.0000 H   0  0  0  0  0  0  0  0  0  0  0  0
    3.7173   10.5100    0.0000 H   0  0  0  0  0  0  0  0  0  0  0  0
    0.5265   10.4809    0.0000 H   0  0  0  0  0  0  0  0  0  0  0  0
    0.9224    9.0578    0.0000 H   0  0  0  0  0  0  0  0  0  0  0  0
    3.7230   11.2304    0.0000 H   0  0  0  0  0  0  0  0  0  0  0  0
    1.2377   14.0716    0.0000 H   0  0  0  0  0  0  0  0  0  0  0  0
   -0.2665   13.1115    0.0000 H   0  0  0  0  0  0  0  0  0  0  0  0
    0.2118   11.3924    0.0000 H   0  0  0  0  0  0  0  0  0  0  0  0
    2.4757   14.2687    0.0000 H   0  0  0  0  0  0  0  0  0  0  0  0
    4.2036   13.8234    0.0000 H   0  0  0  0  0  0  0  0  0  0  0  0
    4.1716   11.8953    0.0000 H   0  0  0  0  0  0  0  0  0  0  0  0
   -0.5203    8.4606    0.0000 H   0  0  0  0  0  0  0  0  0  0  0  0
   -0.9900    7.4519    0.0000 H   0  0  0  0  0  0  0  0  0  0  0  0
   -2.4594    7.1967    0.0000 H   0  0  0  0  0  0  0  0  0  0  0  0
   -3.0482    5.5215    0.0000 H   0  0  0  0  0  0  0  0  0  0  0  0
   -1.6235    4.4469    0.0000 H   0  0  0  0  0  0  0  0  0  0  0  0
   -1.8733    2.9561    0.0000 H   0  0  0  0  0  0  0  0  0  0  0  0
    0.9315   -0.8242    0.0000 H   0  0  0  0  0  0  0  0  0  0  0  0
   -0.4247    0.3263    0.0000 H   0  0  0  0  0  0  0  0  0  0  0  0
    2.6024   -1.6537    0.0000 H   0  0  0  0  0  0  0  0  0  0  0  0
    1.3259   -1.3669    0.0000 H   0  0  0  0  0  0  0  0  0  0  0  0
    4.2800   -2.0364    0.0000 H   0  0  0  0  0  0  0  0  0  0  0  0
    3.1391   -2.0559    0.0000 H   0  0  0  0  0  0  0  0  0  0  0  0
    5.3845   -2.1708    0.0000 H   0  0  0  0  0  0  0  0  0  0  0  0
    1.6846    1.6341    0.0000 H   0  0  0  0  0  0  0  0  0  0  0  0
    2.1229   -0.0440    0.0000 H   0  0  0  0  0  0  0  0  0  0  0  0
    2.4752   -0.5131    0.0000 H   0  0  0  0  0  0  0  0  0  0  0  0
    2.3267   -1.7634    0.0000 H   0  0  0  0  0  0  0  0  0  0  0  0
    2.5839   -2.2907    0.0000 H   0  0  0  0  0  0  0  0  0  0  0  0
    2.3167   -3.3479    0.0000 H   0  0  0  0  0  0  0  0  0  0  0  0
    2.3090   -4.3357    0.0000 H   0  0  0  0  0  0  0  0  0  0  0  0
   -1.0009    5.4197    0.0000 H   0  0  0  0  0  0  0  0  0  0  0  0
   -1.8484    5.8831    0.0000 H   0  0  0  0  0  0  0  0  0  0  0  0
   -2.8959    7.9582    0.0000 H   0  0  0  0  0  0  0  0  0  0  0  0
   -1.6503    6.3110    0.0000 H   0  0  0  0  0  0  0  0  0  0  0  0
   -4.5785    8.6425    0.0000 H   0  0  0  0  0  0  0  0  0  0  0  0
   -5.9260    7.6953    0.0000 H   0  0  0  0  0  0  0  0  0  0  0  0
   -5.2794    5.8786    0.0000 H   0  0  0  0  0  0  0  0  0  0  0  0
   -5.9136    7.3700    0.0000 H   0  0  0  0  0  0  0  0  0  0  0  0
   -8.2863    7.1036    0.0000 H   0  0  0  0  0  0  0  0  0  0  0  0
   -6.8771    7.3017    0.0000 H   0  0  0  0  0  0  0  0  0  0  0  0
  -10.9420    6.4458    0.0000 H   0  0  0  0  0  0  0  0  0  0  0  0
  -11.6935    5.8048    0.0000 H   0  0  0  0  0  0  0  0  0  0  0  0
  -14.4384    5.0554    0.0000 H   0  0  0  0  0  0  0  0  0  0  0  0
  -13.5857    3.4879    0.0000 H   0  0  0  0  0  0  0  0  0  0  0  0
  -12.2597    8.7554    0.0000 H   0  0  0  0  0  0  0  0  0  0  0  0
  -14.7277    3.0098    0.0000 H   0  0  0  0  0  0  0  0  0  0  0  0
  -15.1170    1.9131    0.0000 H   0  0  0  0  0  0  0  0  0  0  0  0
  -17.0210   -0.2013    0.0000 H   0  0  0  0  0  0  0  0  0  0  0  0
  -15.4562   -1.0590    0.0000 H   0  0  0  0  0  0  0  0  0  0  0  0
  -15.0520    3.7794    0.0000 H   0  0  0  0  0  0  0  0  0  0  0  0
  -17.7878    5.2593    0.0000 H   0  0  0  0  0  0  0  0  0  0  0  0
  -20.8514    4.3029    0.0000 H   0  0  0  0  0  0  0  0  0  0  0  0
  -22.6242    1.8828    0.0000 H   0  0  0  0  0  0  0  0  0  0  0  0
  -21.4148   -0.8626    0.0000 H   0  0  0  0  0  0  0  0  0  0  0  0
  -18.4324   -1.1879    0.0000 H   0  0  0  0  0  0  0  0  0  0  0  0
  -16.1639   -2.2617    0.0000 H   0  0  0  0  0  0  0  0  0  0  0  0
  -15.8930   -3.2116    0.0000 H   0  0  0  0  0  0  0  0  0  0  0  0
  -16.3516   -6.0198    0.0000 H   0  0  0  0  0  0  0  0  0  0  0  0
  -14.5715   -5.8953    0.0000 H   0  0  0  0  0  0  0  0  0  0  0  0
  -19.5064   -5.0046    0.0000 H   0  0  0  0  0  0  0  0  0  0  0  0
  -17.6853   -6.8575    0.0000 H   0  0  0  0  0  0  0  0  0  0  0  0
  -14.5167   -7.2897    0.0000 H   0  0  0  0  0  0  0  0  0  0  0  0
  -13.7752   -7.9424    0.0000 H   0  0  0  0  0  0  0  0  0  0  0  0
  -12.6428  -10.5527    0.0000 H   0  0  0  0  0  0  0  0  0  0  0  0
  -11.2126   -9.4856    0.0000 H   0  0  0  0  0  0  0  0  0  0  0  0
  -16.6153   -8.9228    0.0000 H   0  0  0  0  0  0  0  0  0  0  0  0
  -10.5768  -10.5479    0.0000 H   0  0  0  0  0  0  0  0  0  0  0  0
   -6.1398  -11.1473    0.0000 H   0  0  0  0  0  0  0  0  0  0  0  0
   -7.3920  -11.2800    0.0000 H   0  0  0  0  0  0  0  0  0  0  0  0
   -4.5585  -10.9740    0.0000 H   0  0  0  0  0  0  0  0  0  0  0  0
   -5.6191  -11.2279    0.0000 H   0  0  0  0  0  0  0  0  0  0  0  0
   -2.8947  -10.3912    0.0000 H   0  0  0  0  0  0  0  0  0  0  0  0
   -4.0713  -10.8397    0.0000 H   0  0  0  0  0  0  0  0  0  0  0  0
   -1.3713   -9.5041    0.0000 H   0  0  0  0  0  0  0  0  0  0  0  0
   -2.4417  -10.1671    0.0000 H   0  0  0  0  0  0  0  0  0  0  0  0
   -0.0433   -8.3447    0.0000 H   0  0  0  0  0  0  0  0  0  0  0  0
   -0.9689   -9.1983    0.0000 H   0  0  0  0  0  0  0  0  0  0  0  0
    1.0670   -6.7735    0.0000 H   0  0  0  0  0  0  0  0  0  0  0  0
    0.2939   -7.9683    0.0000 H   0  0  0  0  0  0  0  0  0  0  0  0
    1.6972   -6.0128    0.0000 H   0  0  0  0  0  0  0  0  0  0  0  0
   -9.1930  -12.2574    0.0000 H   0  0  0  0  0  0  0  0  0  0  0  0
  -10.6893  -11.6012    0.0000 H   0  0  0  0  0  0  0  0  0  0  0  0
  -10.5904   -9.8195    0.0000 H   0  0  0  0  0  0  0  0  0  0  0  0
   -5.8990  -12.7737    0.0000 H   0  0  0  0  0  0  0  0  0  0  0  0
  1  2  1  0
  2  3  1  0
  3  4  2  0
  4  5  1  0
  5  6  2  0
  6  7  1  0
  7  8  2  0
  7  9  1  0
  9 10  1  0
 10 11  1  0
 11 12  2  0
  9 13  1  0
 13 14  1  0
 14 15  2  0
 15 16  1  0
 16 17  2  0
 17 18  1  0
 16 19  1  0
 14 20  1  0
 20 21  1  0
 21 22  2  0
 22 23  1  0
 23 24  2  0
 24 25  1  0
 25 26  2  0
 25 27  1  0
  1 28  2  0
  1 29  1  0
 29 30  1  0
 30 31  1  0
 31 32  1  0
 32 33  2  0
 32 34  1  0
 35 34  1  1
 35 36  1  0
 36 37  1  0
 37 38  1  0
 38 39  1  0
 35 40  1  0
 35 41  1  0
 41 42  2  0
 41 43  1  0
 43 44  1  0
 44 45  1  0
 45 46  1  0
 46 47  2  0
 47 48  1  0
 48 49  1  0
 49 50  2  0
 44 51  1  0
 51 52  2  0
 51 53  1  0
 53 54  1  0
 54 55  1  0
 55 56  1  0
 56 57  1  0
 56 58  1  0
 54 59  1  0
 59 60  2  0
 59 61  1  0
 61 62  1  0
 62 63  1  0
 62 64  1  0
 64 65  2  0
 64 66  1  0
 66 67  1  0
 67 68  1  0
 68 69  1  0
 69 70  1  0
 70 71  1  0
 67 72  1  0
 72 73  1  0
 73 74  1  0
 74 75  1  0
 67 76  1  0
 76 77  2  0
 76 78  1  0
 78 79  1  0
 79 80  1  0
 80 81  1  0
 79 82  1  0
 82 83  2  0
 82 84  1  0
 84 85  1  0
 85 86  1  0
 86 87  2  0
 86 88  1  0
 88 89  1  0
 89 90  1  0
 90 91  1  0
 91 92  2  0
 91 93  1  0
 89 94  1  0
 94 95  2  0
 94 96  1  0
 96 97  1  0
 97 98  1  0
 98 99  1  0
 99100  2  0
100101  1  0
101102  1  0
102103  2  0
103104  1  0
104105  2  0
105106  1  0
106107  2  0
 97108  1  0
108109  2  0
108110  1  0
110111  1  0
111112  1  0
112113  1  0
113114  1  0
113115  2  0
111116  1  0
116117  2  0
116118  1  0
118119  1  0
119120  1  0
120121  1  0
121122  2  0
121123  1  0
119124  1  0
124125  2  0
124126  1  0
126127  1  0
127128  1  0
128129  1  0
129130  1  0
130131  1  0
131132  1  0
132133  1  0
133134  1  0
127135  1  0
127136  1  1
136137  2  0
136138  1  0
  8  3  1  0
 50 46  1  0
107 99  1  0
 11  6  1  0
 39 71  2  0
107102  1  0
 18 13  2  0
 75134  2  0
 22  9  1  0
 26 21  1  0
  2139  1  0
  4140  1  0
  5141  1  0
  8142  1  0
 15143  1  0
 17144  1  0
 18145  1  0
 19146  1  0
 23147  1  0
 24148  1  0
 26149  1  0
 27150  1  0
 29151  1  0
 30152  1  0
 30153  1  0
 31154  1  0
 31155  1  0
 34156  1  0
 36157  1  0
 36158  1  0
 37159  1  0
 37160  1  0
 38161  1  0
 38162  1  0
 39163  1  0
 40164  1  0
 40165  1  0
 40166  1  0
 43167  1  0
 44168  1  6
 45169  1  0
 45170  1  0
 47171  1  0
 48172  1  0
 49173  1  0
 53174  1  0
 54175  1  6
 55176  1  0
 55177  1  0
 56178  1  0
 57179  1  0
 57180  1  0
 57181  1  0
 58182  1  0
 58183  1  0
 58184  1  0
 61185  1  0
 62186  1  6
 63187  1  0
 63188  1  0
 63189  1  0
 66190  1  0
 68191  1  0
 68192  1  0
 69193  1  0
 69194  1  0
 70195  1  0
 70196  1  0
 71197  1  0
 72198  1  0
 72199  1  0
 73200  1  0
 73201  1  0
 74202  1  0
 74203  1  0
 75204  1  0
 78205  1  0
 79206  1  6
 80207  1  0
 80208  1  0
 81209  1  0
 81210  1  0
 81211  1  0
 84212  1  0
 85213  1  0
 85214  1  0
 88215  1  0
 89216  1  6
 90217  1  0
 90218  1  0
 93219  1  0
 96220  1  0
 97221  1  6
 98222  1  0
 98223  1  0
100224  1  0
101225  1  0
103226  1  0
104227  1  0
105228  1  0
106229  1  0
110230  1  0
111231  1  1
112232  1  0
112233  1  0
114234  1  0
114235  1  0
118236  1  0
119237  1  6
120238  1  0
120239  1  0
123240  1  0
126241  1  0
128242  1  0
128243  1  0
129244  1  0
129245  1  0
130246  1  0
130247  1  0
131248  1  0
131249  1  0
132250  1  0
132251  1  0
133252  1  0
133253  1  0
134254  1  0
135255  1  0
135256  1  0
135257  1  0
138258  1  0
M  END
