
     RDKit          2D

350357  0  0  0  0  0  0  0  0999 V2000
  -28.7846   -0.1753    0.0000 C   0  0  0  0  0  0  0  0  0  0  0  0
  -30.0311   -1.0097    0.0000 N   0  0  0  0  0  0  0  0  0  0  0  0
  -31.3770   -0.3475    0.0000 C   0  0  0  0  0  0  0  0  0  0  0  0
  -31.4764    1.1492    0.0000 C   0  0  0  0  0  0  0  0  0  0  0  0
  -32.8223    1.8115    0.0000 C   0  0  0  0  0  0  0  0  0  0  0  0
  -34.0688    0.9770    0.0000 C   0  0  0  0  0  0  0  0  0  0  0  0
  -33.9693   -0.5197    0.0000 C   0  0  0  0  0  0  0  0  0  0  0  0
  -32.6234   -1.1819    0.0000 C   0  0  0  0  0  0  0  0  0  0  0  0
  -35.3621   -1.0768    0.0000 C   0  0  0  0  0  0  0  0  0  0  0  0
  -36.3222    0.0757    0.0000 O   0  0  0  0  0  0  0  0  0  0  0  0
  -35.5229    1.3450    0.0000 C   0  0  0  0  0  0  0  0  0  0  0  0
  -36.0800    2.7377    0.0000 O   0  0  0  0  0  0  0  0  0  0  0  0
  -36.8054   -1.4852    0.0000 C   0  0  0  0  0  0  0  0  0  0  0  0
  -37.1733   -2.9394    0.0000 C   0  0  0  0  0  0  0  0  0  0  0  0
  -38.6166   -3.3478    0.0000 C   0  0  0  0  0  0  0  0  0  0  0  0
  -39.6920   -2.3020    0.0000 C   0  0  0  0  0  0  0  0  0  0  0  0
  -39.3241   -0.8479    0.0000 C   0  0  0  0  0  0  0  0  0  0  0  0
  -37.8808   -0.4394    0.0000 C   0  0  0  0  0  0  0  0  0  0  0  0
  -41.1353   -2.7105    0.0000 O   0  0  0  0  0  0  0  0  0  0  0  0
  -36.0980   -3.9851    0.0000 O   0  0  0  0  0  0  0  0  0  0  0  0
  -34.6546   -3.5767    0.0000 C   0  0  0  0  0  0  0  0  0  0  0  0
  -34.2867   -2.1225    0.0000 C   0  0  0  0  0  0  0  0  0  0  0  0
  -33.0151   -2.3927    0.0000 C   0  0  0  0  0  0  0  0  0  0  0  0
  -32.4415   -2.9504    0.0000 C   0  0  0  0  0  0  0  0  0  0  0  0
  -32.6378   -3.7260    0.0000 C   0  0  0  0  0  0  0  0  0  0  0  0
  -33.4075   -3.9438    0.0000 C   0  0  0  0  0  0  0  0  0  0  0  0
  -31.0606   -5.2597    0.0000 O   0  0  0  0  0  0  0  0  0  0  0  0
  -28.8840    1.3214    0.0000 S   0  0  0  0  0  0  0  0  0  0  0  0
  -27.4387   -0.8375    0.0000 N   0  0  0  0  0  0  0  0  0  0  0  0
  -26.1922   -0.0031    0.0000 C   0  0  0  0  0  0  0  0  0  0  0  0
  -24.8463   -0.6653    0.0000 C   0  0  0  0  0  0  0  0  0  0  0  0
  -23.5999    0.1691    0.0000 C   0  0  0  0  0  0  0  0  0  0  0  0
  -23.6993    1.6658    0.0000 O   0  0  0  0  0  0  0  0  0  0  0  0
  -22.2540   -0.4931    0.0000 N   0  0  0  0  0  0  0  0  0  0  0  0
  -21.0075    0.3413    0.0000 C   0  0  0  0  0  0  0  0  0  0  0  0
  -20.1216    1.5518    0.0000 C   0  0  0  0  0  0  0  0  0  0  0  0
  -18.6304    1.3898    0.0000 C   0  0  0  0  0  0  0  0  0  0  0  0
  -17.7445    2.6002    0.0000 C   0  0  0  0  0  0  0  0  0  0  0  0
  -16.5296    2.6173    0.0000 O   0  0  0  0  0  0  0  0  0  0  0  0
  -18.3498    3.9727    0.0000 O   0  0  0  0  0  0  0  0  0  0  0  0
  -19.6616   -0.3209    0.0000 C   0  0  0  0  0  0  0  0  0  0  0  0
  -19.5622   -1.8176    0.0000 O   0  0  0  0  0  0  0  0  0  0  0  0
  -18.4152    0.5135    0.0000 N   0  0  0  0  0  0  0  0  0  0  0  0
  -17.0693   -0.1487    0.0000 C   0  0  0  0  0  0  0  0  0  0  0  0
  -16.0310   -1.2313    0.0000 C   0  0  0  0  0  0  0  0  0  0  0  0
  -16.4495   -2.6718    0.0000 C   0  0  0  0  0  0  0  0  0  0  0  0
  -15.4113   -3.7544    0.0000 C   0  0  0  0  0  0  0  0  0  0  0  0
  -15.8298   -5.1949    0.0000 N   0  0  0  0  0  0  0  0  0  0  0  0
  -14.7915   -6.2775    0.0000 C   0  0  0  0  0  0  0  0  0  0  0  0
  -15.2100   -7.7179    0.0000 N   0  0  0  0  0  0  0  0  0  0  0  0
  -13.3348   -5.9197    0.0000 N   0  0  0  0  0  0  0  0  0  0  0  0
  -15.8228    0.6857    0.0000 C   0  0  0  0  0  0  0  0  0  0  0  0
  -15.7549    1.8989    0.0000 O   0  0  0  0  0  0  0  0  0  0  0  0
  -14.4769    0.0235    0.0000 N   0  0  0  0  0  0  0  0  0  0  0  0
  -13.2304    0.8580    0.0000 C   0  0  0  0  0  0  0  0  0  0  0  0
  -12.3445    2.0684    0.0000 C   0  0  0  0  0  0  0  0  0  0  0  0
  -10.8533    1.9064    0.0000 C   0  0  0  0  0  0  0  0  0  0  0  0
   -9.9674    3.1169    0.0000 C   0  0  0  0  0  0  0  0  0  0  0  0
   -9.5074    1.2442    0.0000 C   0  0  0  0  0  0  0  0  0  0  0  0
  -11.8845    0.1957    0.0000 C   0  0  0  0  0  0  0  0  0  0  0  0
  -11.7851   -1.3010    0.0000 O   0  0  0  0  0  0  0  0  0  0  0  0
  -10.6381    1.0302    0.0000 N   0  0  0  0  0  0  0  0  0  0  0  0
   -9.2922    0.3679    0.0000 C   0  0  0  0  0  0  0  0  0  0  0  0
   -8.2539   -0.7147    0.0000 C   0  0  0  0  0  0  0  0  0  0  0  0
   -8.6724   -2.1552    0.0000 C   0  0  0  0  0  0  0  0  0  0  0  0
   -7.6342   -3.2378    0.0000 C   0  0  0  0  0  0  0  0  0  0  0  0
   -8.0527   -4.6782    0.0000 N   0  0  0  0  0  0  0  0  0  0  0  0
   -7.0144   -5.7609    0.0000 C   0  0  0  0  0  0  0  0  0  0  0  0
   -7.4329   -7.2013    0.0000 N   0  0  0  0  0  0  0  0  0  0  0  0
   -5.5578   -5.4031    0.0000 N   0  0  0  0  0  0  0  0  0  0  0  0
   -8.0457    1.2024    0.0000 C   0  0  0  0  0  0  0  0  0  0  0  0
   -7.9619    2.7000    0.0000 O   0  0  0  0  0  0  0  0  0  0  0  0
   -6.6998    0.5401    0.0000 N   0  0  0  0  0  0  0  0  0  0  0  0
   -5.4533    1.3746    0.0000 C   0  0  0  0  0  0  0  0  0  0  0  0
   -4.5674    2.5850    0.0000 C   0  0  0  0  0  0  0  0  0  0  0  0
   -3.0762    2.4230    0.0000 C   0  0  0  0  0  0  0  0  0  0  0  0
   -2.1903    3.6335    0.0000 C   0  0  0  0  0  0  0  0  0  0  0  0
   -0.6991    3.4715    0.0000 N   0  0  0  0  0  0  0  0  0  0  0  0
    0.1868    4.6819    0.0000 C   0  0  0  0  0  0  0  0  0  0  0  0
    1.6472    4.3394    0.0000 N   0  0  0  0  0  0  0  0  0  0  0  0
   -0.4185    6.0544    0.0000 N   0  0  0  0  0  0  0  0  0  0  0  0
   -4.1074    0.7123    0.0000 C   0  0  0  0  0  0  0  0  0  0  0  0
   -4.0080   -0.7844    0.0000 O   0  0  0  0  0  0  0  0  0  0  0  0
   -2.8610    1.5468    0.0000 N   0  0  0  0  0  0  0  0  0  0  0  0
   -1.5151    0.8845    0.0000 C   0  0  0  0  0  0  0  0  0  0  0  0
   -0.4769   -0.1981    0.0000 C   0  0  0  0  0  0  0  0  0  0  0  0
   -0.8953   -1.6385    0.0000 C   0  0  0  0  0  0  0  0  0  0  0  0
    0.1429   -2.7212    0.0000 C   0  0  0  0  0  0  0  0  0  0  0  0
   -0.2756   -4.1616    0.0000 N   0  0  0  0  0  0  0  0  0  0  0  0
    0.7626   -5.2443    0.0000 C   0  0  0  0  0  0  0  0  0  0  0  0
    0.3442   -6.6847    0.0000 N   0  0  0  0  0  0  0  0  0  0  0  0
    2.2193   -4.8864    0.0000 N   0  0  0  0  0  0  0  0  0  0  0  0
   -0.2686    1.7190    0.0000 C   0  0  0  0  0  0  0  0  0  0  0  0
   -0.0749    2.7952    0.0000 O   0  0  0  0  0  0  0  0  0  0  0  0
    1.0773    1.0567    0.0000 N   0  0  0  0  0  0  0  0  0  0  0  0
    2.3238    1.8912    0.0000 C   0  0  0  0  0  0  0  0  0  0  0  0
    3.2097    3.1016    0.0000 C   0  0  0  0  0  0  0  0  0  0  0  0
    4.7009    2.9396    0.0000 C   0  0  0  0  0  0  0  0  0  0  0  0
    5.5868    4.1501    0.0000 C   0  0  0  0  0  0  0  0  0  0  0  0
    6.1670    2.6228    0.0000 C   0  0  0  0  0  0  0  0  0  0  0  0
    3.6696    1.2289    0.0000 C   0  0  0  0  0  0  0  0  0  0  0  0
    3.5859   -0.2687    0.0000 O   0  0  0  0  0  0  0  0  0  0  0  0
    4.9161    2.0634    0.0000 N   0  0  0  0  0  0  0  0  0  0  0  0
    6.2620    1.4011    0.0000 C   0  0  0  0  0  0  0  0  0  0  0  0
    6.6560   -0.0462    0.0000 C   0  0  0  0  0  0  0  0  0  0  0  0
    7.4591   -1.3131    0.0000 C   0  0  0  0  0  0  0  0  0  0  0  0
    8.6000   -2.2869    0.0000 C   0  0  0  0  0  0  0  0  0  0  0  0
    9.9772   -2.8813    0.0000 C   0  0  0  0  0  0  0  0  0  0  0  0
    4.9971    0.5949    0.0000 C   0  0  0  0  0  0  0  0  0  0  0  0
    6.3121    2.9003    0.0000 C   0  0  0  0  0  0  0  0  0  0  0  0
    5.0330    3.6838    0.0000 O   0  0  0  0  0  0  0  0  0  0  0  0
    6.8019    4.3181    0.0000 N   0  0  0  0  0  0  0  0  0  0  0  0
    7.6878    5.5285    0.0000 C   0  0  0  0  0  0  0  0  0  0  0  0
    7.3664    6.9937    0.0000 C   0  0  0  0  0  0  0  0  0  0  0  0
    5.9368    7.4480    0.0000 C   0  0  0  0  0  0  0  0  0  0  0  0
    5.6154    8.9131    0.0000 C   0  0  0  0  0  0  0  0  0  0  0  0
    4.4381    7.3859    0.0000 C   0  0  0  0  0  0  0  0  0  0  0  0
    8.8911    6.4241    0.0000 C   0  0  0  0  0  0  0  0  0  0  0  0
    8.1849    7.7475    0.0000 O   0  0  0  0  0  0  0  0  0  0  0  0
   10.3049    6.9252    0.0000 N   0  0  0  0  0  0  0  0  0  0  0  0
   11.8036    6.9872    0.0000 C   0  0  0  0  0  0  0  0  0  0  0  0
   12.7488    8.1520    0.0000 C   0  0  0  0  0  0  0  0  0  0  0  0
   12.2126    9.5529    0.0000 S   0  0  0  0  0  0  0  0  0  0  0  0
   13.2541    6.6048    0.0000 C   0  0  0  0  0  0  0  0  0  0  0  0
   13.8484    7.9820    0.0000 O   0  0  0  0  0  0  0  0  0  0  0  0
   14.5273    5.8118    0.0000 N   0  0  0  0  0  0  0  0  0  0  0  0
   15.5103    4.6788    0.0000 C   0  0  0  0  0  0  0  0  0  0  0  0
   17.0102    4.6661    0.0000 C   0  0  0  0  0  0  0  0  0  0  0  0
   17.7712    5.9587    0.0000 C   0  0  0  0  0  0  0  0  0  0  0  0
   19.2712    5.9460    0.0000 C   0  0  0  0  0  0  0  0  0  0  0  0
   20.0321    7.2387    0.0000 N   0  0  0  0  0  0  0  0  0  0  0  0
   21.5321    7.2260    0.0000 C   0  0  0  0  0  0  0  0  0  0  0  0
   22.2931    8.5186    0.0000 N   0  0  0  0  0  0  0  0  0  0  0  0
   22.2711    5.9206    0.0000 N   0  0  0  0  0  0  0  0  0  0  0  0
   16.1156    3.3064    0.0000 C   0  0  0  0  0  0  0  0  0  0  0  0
   17.5629    3.7004    0.0000 O   0  0  0  0  0  0  0  0  0  0  0  0
   16.2895    1.8165    0.0000 N   0  0  0  0  0  0  0  0  0  0  0  0
   16.0166    0.3415    0.0000 C   0  0  0  0  0  0  0  0  0  0  0  0
   15.3210   -0.9874    0.0000 C   0  0  0  0  0  0  0  0  0  0  0  0
   14.2645   -2.0523    0.0000 C   0  0  0  0  0  0  0  0  0  0  0  0
   12.9412   -2.7585    0.0000 C   0  0  0  0  0  0  0  0  0  0  0  0
   11.4685   -3.0433    0.0000 C   0  0  0  0  0  0  0  0  0  0  0  0
   17.4733    0.6994    0.0000 C   0  0  0  0  0  0  0  0  0  0  0  0
   16.9418   -0.8391    0.0000 C   0  0  0  0  0  0  0  0  0  0  0  0
   16.7354   -2.3248    0.0000 O   0  0  0  0  0  0  0  0  0  0  0  0
   18.4269   -0.6281    0.0000 N   0  0  0  0  0  0  0  0  0  0  0  0
   19.3522   -1.8087    0.0000 C   0  0  0  0  0  0  0  0  0  0  0  0
   19.8178   -3.2346    0.0000 C   0  0  0  0  0  0  0  0  0  0  0  0
   18.8158   -4.3508    0.0000 C   0  0  0  0  0  0  0  0  0  0  0  0
   19.1299   -5.8176    0.0000 C   0  0  0  0  0  0  0  0  0  0  0  0
   17.8320   -6.5695    0.0000 N   0  0  0  0  0  0  0  0  0  0  0  0
   16.7158   -5.5675    0.0000 C   0  0  0  0  0  0  0  0  0  0  0  0
   17.3238   -4.1963    0.0000 N   0  0  0  0  0  0  0  0  0  0  0  0
   20.8373   -1.5977    0.0000 C   0  0  0  0  0  0  0  0  0  0  0  0
   21.3971   -0.2061    0.0000 O   0  0  0  0  0  0  0  0  0  0  0  0
   21.7625   -2.7784    0.0000 N   0  0  0  0  0  0  0  0  0  0  0  0
   23.2476   -2.5674    0.0000 C   0  0  0  0  0  0  0  0  0  0  0  0
   24.5710   -1.8612    0.0000 C   0  0  0  0  0  0  0  0  0  0  0  0
   25.8442   -2.6541    0.0000 C   0  0  0  0  0  0  0  0  0  0  0  0
   27.2342   -2.0901    0.0000 C   0  0  0  0  0  0  0  0  0  0  0  0
   28.2001   -3.2377    0.0000 N   0  0  0  0  0  0  0  0  0  0  0  0
   27.4071   -4.5110    0.0000 C   0  0  0  0  0  0  0  0  0  0  0  0
   25.9511   -4.1503    0.0000 N   0  0  0  0  0  0  0  0  0  0  0  0
   24.1729   -3.7480    0.0000 C   0  0  0  0  0  0  0  0  0  0  0  0
   23.6131   -5.1396    0.0000 O   0  0  0  0  0  0  0  0  0  0  0  0
   25.6580   -3.5370    0.0000 N   0  0  0  0  0  0  0  0  0  0  0  0
   26.5832   -4.7176    0.0000 C   0  0  0  0  0  0  0  0  0  0  0  0
   27.0489   -6.1435    0.0000 C   0  0  0  0  0  0  0  0  0  0  0  0
   26.0469   -7.2597    0.0000 O   0  0  0  0  0  0  0  0  0  0  0  0
   28.0683   -4.5066    0.0000 C   0  0  0  0  0  0  0  0  0  0  0  0
   28.9482   -3.2918    0.0000 O   0  0  0  0  0  0  0  0  0  0  0  0
   28.9936   -5.6872    0.0000 N   0  0  0  0  0  0  0  0  0  0  0  0
   30.4787   -5.4763    0.0000 C   0  0  0  0  0  0  0  0  0  0  0  0
   31.8020   -4.7701    0.0000 C   0  0  0  0  0  0  0  0  0  0  0  0
   32.8041   -3.6538    0.0000 O   0  0  0  0  0  0  0  0  0  0  0  0
   33.0753   -5.5630    0.0000 C   0  0  0  0  0  0  0  0  0  0  0  0
   31.4040   -6.6569    0.0000 C   0  0  0  0  0  0  0  0  0  0  0  0
   32.9037   -6.6285    0.0000 O   0  0  0  0  0  0  0  0  0  0  0  0
   30.8441   -8.0485    0.0000 O   0  0  0  0  0  0  0  0  0  0  0  0
  -29.7499   -2.4832    0.0000 H   0  0  0  0  0  0  0  0  0  0  0  0
  -30.2299    1.9837    0.0000 H   0  0  0  0  0  0  0  0  0  0  0  0
  -32.9217    3.3082    0.0000 H   0  0  0  0  0  0  0  0  0  0  0  0
  -32.1648   -2.6101    0.0000 H   0  0  0  0  0  0  0  0  0  0  0  0
  -38.9846   -4.8020    0.0000 H   0  0  0  0  0  0  0  0  0  0  0  0
  -40.3994    0.1979    0.0000 H   0  0  0  0  0  0  0  0  0  0  0  0
  -37.5128    1.0147    0.0000 H   0  0  0  0  0  0  0  0  0  0  0  0
  -42.2107   -1.6647    0.0000 H   0  0  0  0  0  0  0  0  0  0  0  0
  -32.4754   -0.2599    0.0000 H   0  0  0  0  0  0  0  0  0  0  0  0
  -30.2856   -2.5303    0.0000 H   0  0  0  0  0  0  0  0  0  0  0  0
  -33.9472   -6.0766    0.0000 H   0  0  0  0  0  0  0  0  0  0  0  0
  -31.4285   -6.7139    0.0000 H   0  0  0  0  0  0  0  0  0  0  0  0
  -27.3393   -2.3342    0.0000 H   0  0  0  0  0  0  0  0  0  0  0  0
  -25.3063    1.2074    0.0000 H   0  0  0  0  0  0  0  0  0  0  0  0
  -27.2305    1.0796    0.0000 H   0  0  0  0  0  0  0  0  0  0  0  0
  -23.8081   -1.7480    0.0000 H   0  0  0  0  0  0  0  0  0  0  0  0
  -25.7322   -1.8758    0.0000 H   0  0  0  0  0  0  0  0  0  0  0  0
  -22.1546   -1.9898    0.0000 H   0  0  0  0  0  0  0  0  0  0  0  0
  -22.0457    1.4240    0.0000 H   0  0  0  0  0  0  0  0  0  0  0  0
  -19.7031    2.9922    0.0000 H   0  0  0  0  0  0  0  0  0  0  0  0
  -21.4675    2.2140    0.0000 H   0  0  0  0  0  0  0  0  0  0  0  0
  -17.2845    0.7276    0.0000 H   0  0  0  0  0  0  0  0  0  0  0  0
  -18.3235   -0.0785    0.0000 H   0  0  0  0  0  0  0  0  0  0  0  0
  -17.4639    5.1831    0.0000 H   0  0  0  0  0  0  0  0  0  0  0  0
  -18.1495    1.9898    0.0000 H   0  0  0  0  0  0  0  0  0  0  0  0
  -18.0961   -1.2421    0.0000 H   0  0  0  0  0  0  0  0  0  0  0  0
  -14.6851   -1.8936    0.0000 H   0  0  0  0  0  0  0  0  0  0  0  0
  -14.8786   -0.2712    0.0000 H   0  0  0  0  0  0  0  0  0  0  0  0
  -17.3354   -3.8822    0.0000 H   0  0  0  0  0  0  0  0  0  0  0  0
  -17.8661   -2.1785    0.0000 H   0  0  0  0  0  0  0  0  0  0  0  0
  -14.0654   -4.4167    0.0000 H   0  0  0  0  0  0  0  0  0  0  0  0
  -14.3844   -2.6610    0.0000 H   0  0  0  0  0  0  0  0  0  0  0  0
  -17.2865   -5.5527    0.0000 H   0  0  0  0  0  0  0  0  0  0  0  0
  -14.1718   -8.8006    0.0000 H   0  0  0  0  0  0  0  0  0  0  0  0
  -12.2966   -7.0023    0.0000 H   0  0  0  0  0  0  0  0  0  0  0  0
  -12.9164   -4.4792    0.0000 H   0  0  0  0  0  0  0  0  0  0  0  0
  -14.1958   -1.4499    0.0000 H   0  0  0  0  0  0  0  0  0  0  0  0
  -14.2686    1.9406    0.0000 H   0  0  0  0  0  0  0  0  0  0  0  0
  -12.1048    3.5491    0.0000 H   0  0  0  0  0  0  0  0  0  0  0  0
  -13.6904    2.7306    0.0000 H   0  0  0  0  0  0  0  0  0  0  0  0
  -10.5464    0.4381    0.0000 H   0  0  0  0  0  0  0  0  0  0  0  0
   -8.4813    3.3205    0.0000 H   0  0  0  0  0  0  0  0  0  0  0  0
   -9.5489    4.5573    0.0000 H   0  0  0  0  0  0  0  0  0  0  0  0
  -11.2225    3.9382    0.0000 H   0  0  0  0  0  0  0  0  0  0  0  0
   -9.0488   -0.1840    0.0000 H   0  0  0  0  0  0  0  0  0  0  0  0
   -8.0572    1.6275    0.0000 H   0  0  0  0  0  0  0  0  0  0  0  0
   -8.9165    2.6229    0.0000 H   0  0  0  0  0  0  0  0  0  0  0  0
  -10.3724    2.5064    0.0000 H   0  0  0  0  0  0  0  0  0  0  0  0
  -10.3190   -0.7255    0.0000 H   0  0  0  0  0  0  0  0  0  0  0  0
   -6.9081   -1.3770    0.0000 H   0  0  0  0  0  0  0  0  0  0  0  0
   -6.9930    0.0977    0.0000 H   0  0  0  0  0  0  0  0  0  0  0  0
   -9.5583   -3.3656    0.0000 H   0  0  0  0  0  0  0  0  0  0  0  0
  -10.0890   -1.6619    0.0000 H   0  0  0  0  0  0  0  0  0  0  0  0
   -6.2883   -3.9000    0.0000 H   0  0  0  0  0  0  0  0  0  0  0  0
   -6.6074   -2.1444    0.0000 H   0  0  0  0  0  0  0  0  0  0  0  0
   -9.5094   -5.0361    0.0000 H   0  0  0  0  0  0  0  0  0  0  0  0
   -6.3947   -8.2839    0.0000 H   0  0  0  0  0  0  0  0  0  0  0  0
   -4.5195   -6.4857    0.0000 H   0  0  0  0  0  0  0  0  0  0  0  0
   -5.1393   -3.9626    0.0000 H   0  0  0  0  0  0  0  0  0  0  0  0
   -6.4187   -0.9333    0.0000 H   0  0  0  0  0  0  0  0  0  0  0  0
   -6.4916    2.4572    0.0000 H   0  0  0  0  0  0  0  0  0  0  0  0
   -4.3277    4.0657    0.0000 H   0  0  0  0  0  0  0  0  0  0  0  0
   -5.9133    3.2473    0.0000 H   0  0  0  0  0  0  0  0  0  0  0  0
   -1.7303    1.7608    0.0000 H   0  0  0  0  0  0  0  0  0  0  0  0
   -2.7693    0.9548    0.0000 H   0  0  0  0  0  0  0  0  0  0  0  0
   -1.7718    5.0739    0.0000 H   0  0  0  0  0  0  0  0  0  0  0  0
   -3.4454    4.4548    0.0000 H   0  0  0  0  0  0  0  0  0  0  0  0
    0.2204    2.2863    0.0000 H   0  0  0  0  0  0  0  0  0  0  0  0
    2.5639    5.7304    0.0000 H   0  0  0  0  0  0  0  0  0  0  0  0
    0.4674    7.2648    0.0000 H   0  0  0  0  0  0  0  0  0  0  0  0
   -1.9097    6.2164    0.0000 H   0  0  0  0  0  0  0  0  0  0  0  0
   -2.5953    3.0231    0.0000 H   0  0  0  0  0  0  0  0  0  0  0  0
   -2.5419   -0.2089    0.0000 H   0  0  0  0  0  0  0  0  0  0  0  0
    0.8690   -0.8604    0.0000 H   0  0  0  0  0  0  0  0  0  0  0  0
    0.6756    0.7620    0.0000 H   0  0  0  0  0  0  0  0  0  0  0  0
   -1.7812   -2.8490    0.0000 H   0  0  0  0  0  0  0  0  0  0  0  0
   -2.3119   -1.1453    0.0000 H   0  0  0  0  0  0  0  0  0  0  0  0
    1.4888   -3.3834    0.0000 H   0  0  0  0  0  0  0  0  0  0  0  0
    1.1697   -1.6277    0.0000 H   0  0  0  0  0  0  0  0  0  0  0  0
   -1.7323   -4.5194    0.0000 H   0  0  0  0  0  0  0  0  0  0  0  0
    1.3824   -7.7673    0.0000 H   0  0  0  0  0  0  0  0  0  0  0  0
    3.2576   -5.9691    0.0000 H   0  0  0  0  0  0  0  0  0  0  0  0
    2.6378   -3.4460    0.0000 H   0  0  0  0  0  0  0  0  0  0  0  0
    1.3584   -0.4167    0.0000 H   0  0  0  0  0  0  0  0  0  0  0  0
    1.2855    2.9738    0.0000 H   0  0  0  0  0  0  0  0  0  0  0  0
    3.4494    4.5823    0.0000 H   0  0  0  0  0  0  0  0  0  0  0  0
    1.7931    3.5949    0.0000 H   0  0  0  0  0  0  0  0  0  0  0  0
    4.8265    1.4449    0.0000 H   0  0  0  0  0  0  0  0  0  0  0  0
    7.0370    4.5334    0.0000 H   0  0  0  0  0  0  0  0  0  0  0  0
    5.4611    5.6448    0.0000 H   0  0  0  0  0  0  0  0  0  0  0  0
    4.3316    4.9715    0.0000 H   0  0  0  0  0  0  0  0  0  0  0  0
    6.5925    0.8304    0.0000 H   0  0  0  0  0  0  0  0  0  0  0  0
    7.5380    2.1154    0.0000 H   0  0  0  0  0  0  0  0  0  0  0  0
    6.3295    3.7460    0.0000 H   0  0  0  0  0  0  0  0  0  0  0  0
    4.9999    3.5611    0.0000 H   0  0  0  0  0  0  0  0  0  0  0  0
    5.1570    0.0076    0.0000 H   0  0  0  0  0  0  0  0  0  0  0  0
    5.8316   -1.2993    0.0000 H   0  0  0  0  0  0  0  0  0  0  0  0
    6.0692   -1.8771    0.0000 H   0  0  0  0  0  0  0  0  0  0  0  0
    6.8682   -2.6918    0.0000 H   0  0  0  0  0  0  0  0  0  0  0  0
    7.3311   -3.0869    0.0000 H   0  0  0  0  0  0  0  0  0  0  0  0
    8.6247   -3.7867    0.0000 H   0  0  0  0  0  0  0  0  0  0  0  0
    9.5948   -4.3317    0.0000 H   0  0  0  0  0  0  0  0  0  0  0  0
    4.9484   -1.0703    0.0000 H   0  0  0  0  0  0  0  0  0  0  0  0
    3.7799   -0.2087    0.0000 H   0  0  0  0  0  0  0  0  0  0  0  0
    3.9930    1.4489    0.0000 H   0  0  0  0  0  0  0  0  0  0  0  0
    5.5676    5.1705    0.0000 H   0  0  0  0  0  0  0  0  0  0  0  0
    6.2201    5.8382    0.0000 H   0  0  0  0  0  0  0  0  0  0  0  0
    7.7452    8.4451    0.0000 H   0  0  0  0  0  0  0  0  0  0  0  0
    8.8055    7.4166    0.0000 H   0  0  0  0  0  0  0  0  0  0  0  0
    5.3839    6.0536    0.0000 H   0  0  0  0  0  0  0  0  0  0  0  0
    4.2519    9.5383    0.0000 H   0  0  0  0  0  0  0  0  0  0  0  0
    5.8145   10.3999    0.0000 H   0  0  0  0  0  0  0  0  0  0  0  0
    7.0954    9.1574    0.0000 H   0  0  0  0  0  0  0  0  0  0  0  0
    3.4865    8.5454    0.0000 H   0  0  0  0  0  0  0  0  0  0  0  0
    3.0510    6.8150    0.0000 H   0  0  0  0  0  0  0  0  0  0  0  0
    4.7595    5.9207    0.0000 H   0  0  0  0  0  0  0  0  0  0  0  0
   10.0202    8.3979    0.0000 H   0  0  0  0  0  0  0  0  0  0  0  0
   11.1306    8.3278    0.0000 H   0  0  0  0  0  0  0  0  0  0  0  0
   14.0353    8.9233    0.0000 H   0  0  0  0  0  0  0  0  0  0  0  0
   13.9767    7.2905    0.0000 H   0  0  0  0  0  0  0  0  0  0  0  0
   13.1577   10.7177    0.0000 H   0  0  0  0  0  0  0  0  0  0  0  0
   15.5012    6.9527    0.0000 H   0  0  0  0  0  0  0  0  0  0  0  0
   15.9681    6.1073    0.0000 H   0  0  0  0  0  0  0  0  0  0  0  0
   18.3409    3.9738    0.0000 H   0  0  0  0  0  0  0  0  0  0  0  0
   17.1023    3.1689    0.0000 H   0  0  0  0  0  0  0  0  0  0  0  0
   18.0442    7.4337    0.0000 H   0  0  0  0  0  0  0  0  0  0  0  0
   16.4405    6.6511    0.0000 H   0  0  0  0  0  0  0  0  0  0  0  0
   20.6763    5.4211    0.0000 H   0  0  0  0  0  0  0  0  0  0  0  0
   19.1800    4.4488    0.0000 H   0  0  0  0  0  0  0  0  0  0  0  0
   19.2932    8.5440    0.0000 H   0  0  0  0  0  0  0  0  0  0  0  0
   23.7930    8.5059    0.0000 H   0  0  0  0  0  0  0  0  0  0  0  0
   23.7710    5.9079    0.0000 H   0  0  0  0  0  0  0  0  0  0  0  0
   21.5101    4.6280    0.0000 H   0  0  0  0  0  0  0  0  0  0  0  0
   17.7887    1.7664    0.0000 H   0  0  0  0  0  0  0  0  0  0  0  0
   15.8571   -2.3883    0.0000 H   0  0  0  0  0  0  0  0  0  0  0  0
   16.7527   -1.4346    0.0000 H   0  0  0  0  0  0  0  0  0  0  0  0
   14.5457   -3.5257    0.0000 H   0  0  0  0  0  0  0  0  0  0  0  0
   15.5009   -2.9017    0.0000 H   0  0  0  0  0  0  0  0  0  0  0  0
   12.5950   -4.2180    0.0000 H   0  0  0  0  0  0  0  0  0  0  0  0
   14.0087   -3.8123    0.0000 H   0  0  0  0  0  0  0  0  0  0  0  0
   11.5305   -4.5420    0.0000 H   0  0  0  0  0  0  0  0  0  0  0  0
   18.7426   -0.0999    0.0000 H   0  0  0  0  0  0  0  0  0  0  0  0
   18.6087    1.6795    0.0000 H   0  0  0  0  0  0  0  0  0  0  0  0
   17.2180    2.1775    0.0000 H   0  0  0  0  0  0  0  0  0  0  0  0
   19.1522    0.6849    0.0000 H   0  0  0  0  0  0  0  0  0  0  0  0
   18.0288   -2.5149    0.0000 H   0  0  0  0  0  0  0  0  0  0  0  0
   20.5923   -4.5192    0.0000 H   0  0  0  0  0  0  0  0  0  0  0  0
   21.2728   -2.8696    0.0000 H   0  0  0  0  0  0  0  0  0  0  0  0
   20.5011   -6.4256    0.0000 H   0  0  0  0  0  0  0  0  0  0  0  0
   17.6774   -8.0616    0.0000 H   0  0  0  0  0  0  0  0  0  0  0  0
   15.2490   -5.8816    0.0000 H   0  0  0  0  0  0  0  0  0  0  0  0
   21.3765   -4.2278    0.0000 H   0  0  0  0  0  0  0  0  0  0  0  0
   22.7819   -1.1415    0.0000 H   0  0  0  0  0  0  0  0  0  0  0  0
   25.5730   -0.7449    0.0000 H   0  0  0  0  0  0  0  0  0  0  0  0
   23.6457   -0.6805    0.0000 H   0  0  0  0  0  0  0  0  0  0  0  0
   27.5949   -0.6341    0.0000 H   0  0  0  0  0  0  0  0  0  0  0  0
   29.6963   -3.1309    0.0000 H   0  0  0  0  0  0  0  0  0  0  0  0
   28.1363   -5.8218    0.0000 H   0  0  0  0  0  0  0  0  0  0  0  0
   26.5379   -2.3222    0.0000 H   0  0  0  0  0  0  0  0  0  0  0  0
   25.2599   -5.4238    0.0000 H   0  0  0  0  0  0  0  0  0  0  0  0
   27.8234   -7.4281    0.0000 H   0  0  0  0  0  0  0  0  0  0  0  0
   28.5375   -5.9586    0.0000 H   0  0  0  0  0  0  0  0  0  0  0  0
   26.5126   -8.6856    0.0000 H   0  0  0  0  0  0  0  0  0  0  0  0
   28.6076   -7.1367    0.0000 H   0  0  0  0  0  0  0  0  0  0  0  0
   30.0130   -4.0504    0.0000 H   0  0  0  0  0  0  0  0  0  0  0  0
   30.8768   -3.5894    0.0000 H   0  0  0  0  0  0  0  0  0  0  0  0
   34.2986   -3.7823    0.0000 H   0  0  0  0  0  0  0  0  0  0  0  0
   34.4749   -5.0234    0.0000 H   0  0  0  0  0  0  0  0  0  0  0  0
   34.0006   -6.7436    0.0000 H   0  0  0  0  0  0  0  0  0  0  0  0
   32.5400   -6.9642    0.0000 H   0  0  0  0  0  0  0  0  0  0  0  0
   31.7694   -9.2291    0.0000 H   0  0  0  0  0  0  0  0  0  0  0  0
  1  2  1  0
  2  3  1  0
  3  4  2  0
  4  5  1  0
  5  6  2  0
  6  7  1  0
  7  8  2  0
  7  9  1  0
  9 10  1  0
 10 11  1  0
 11 12  2  0
  9 13  1  0
 13 14  1  0
 14 15  2  0
 15 16  1  0
 16 17  2  0
 17 18  1  0
 16 19  1  0
 14 20  1  0
 20 21  1  0
 21 22  2  0
 22 23  1  0
 23 24  2  0
 24 25  1  0
 25 26  2  0
 25 27  1  0
  1 28  2  0
  1 29  1  0
 29 30  1  0
 30 31  1  0
 31 32  1  0
 32 33  2  0
 32 34  1  0
 34 35  1  0
 35 36  1  0
 36 37  1  0
 37 38  1  0
 38 39  2  0
 38 40  1  0
 35 41  1  0
 41 42  2  0
 41 43  1  0
 43 44  1  0
 44 45  1  0
 45 46  1  0
 46 47  1  0
 47 48  1  0
 48 49  1  0
 49 50  2  3
 49 51  1  0
 44 52  1  0
 52 53  2  0
 52 54  1  0
 54 55  1  0
 55 56  1  0
 56 57  1  0
 57 58  1  0
 57 59  1  0
 55 60  1  0
 60 61  2  0
 60 62  1  0
 62 63  1  0
 63 64  1  0
 64 65  1  0
 65 66  1  0
 66 67  1  0
 67 68  1  0
 68 69  2  3
 68 70  1  0
 63 71  1  0
 71 72  2  0
 71 73  1  0
 73 74  1  0
 74 75  1  0
 75 76  1  0
 76 77  1  0
 77 78  1  0
 78 79  1  0
 79 80  2  3
 79 81  1  0
 74 82  1  0
 82 83  2  0
 82 84  1  0
 84 85  1  0
 85 86  1  0
 86 87  1  0
 87 88  1  0
 88 89  1  0
 89 90  1  0
 90 91  2  3
 90 92  1  0
 85 93  1  0
 93 94  2  0
 93 95  1  0
 95 96  1  0
 96 97  1  0
 97 98  1  0
 98 99  1  0
 98100  1  0
 96101  1  0
101102  2  0
101103  1  0
104103  1  6
104105  1  0
105106  1  0
106107  1  0
107108  1  0
104109  1  0
104110  1  0
110111  2  0
110112  1  0
112113  1  0
113114  1  0
114115  1  0
115116  1  0
115117  1  0
113118  1  0
118119  2  0
118120  1  0
120121  1  0
121122  1  0
122123  1  0
121124  1  0
124125  2  0
124126  1  0
126127  1  0
127128  1  0
128129  1  0
129130  1  0
130131  1  0
131132  1  0
132133  2  3
132134  1  0
127135  1  0
135136  2  0
135137  1  0
137138  1  0
138139  1  0
139140  1  0
140141  1  0
141142  1  0
138143  1  0
138144  1  6
144145  2  0
144146  1  0
146147  1  0
147148  1  0
148149  1  0
149150  2  0
150151  1  0
151152  1  0
152153  2  0
147154  1  0
154155  2  0
154156  1  0
156157  1  0
157158  1  0
158159  1  0
159160  2  0
160161  1  0
161162  1  0
162163  2  0
157164  1  0
164165  2  0
164166  1  0
166167  1  0
167168  1  0
168169  1  0
167170  1  0
170171  2  0
170172  1  0
172173  1  0
173174  1  0
174175  1  0
174176  1  0
173177  1  0
177178  2  0
177179  1  0
  8  3  1  0
153149  1  0
163159  1  0
 11  6  1  0
108142  2  0
 18 13  2  0
 22  9  1  0
 26 21  1  0
  2180  1  0
  4181  1  0
  5182  1  0
  8183  1  0
 15184  1  0
 17185  1  0
 18186  1  0
 19187  1  0
 23188  1  0
 24189  1  0
 26190  1  0
 27191  1  0
 29192  1  0
 30193  1  0
 30194  1  0
 31195  1  0
 31196  1  0
 34197  1  0
 35198  1  1
 36199  1  0
 36200  1  0
 37201  1  0
 37202  1  0
 40203  1  0
 43204  1  0
 44205  1  6
 45206  1  0
 45207  1  0
 46208  1  0
 46209  1  0
 47210  1  0
 47211  1  0
 48212  1  0
 50213  1  0
 51214  1  0
 51215  1  0
 54216  1  0
 55217  1  1
 56218  1  0
 56219  1  0
 57220  1  0
 58221  1  0
 58222  1  0
 58223  1  0
 59224  1  0
 59225  1  0
 59226  1  0
 62227  1  0
 63228  1  6
 64229  1  0
 64230  1  0
 65231  1  0
 65232  1  0
 66233  1  0
 66234  1  0
 67235  1  0
 69236  1  0
 70237  1  0
 70238  1  0
 73239  1  0
 74240  1  1
 75241  1  0
 75242  1  0
 76243  1  0
 76244  1  0
 77245  1  0
 77246  1  0
 78247  1  0
 80248  1  0
 81249  1  0
 81250  1  0
 84251  1  0
 85252  1  6
 86253  1  0
 86254  1  0
 87255  1  0
 87256  1  0
 88257  1  0
 88258  1  0
 89259  1  0
 91260  1  0
 92261  1  0
 92262  1  0
 95263  1  0
 96264  1  1
 97265  1  0
 97266  1  0
 98267  1  0
 99268  1  0
 99269  1  0
 99270  1  0
100271  1  0
100272  1  0
100273  1  0
103274  1  0
105275  1  0
105276  1  0
106277  1  0
106278  1  0
107279  1  0
107280  1  0
108281  1  0
109282  1  0
109283  1  0
109284  1  0
112285  1  0
113286  1  1
114287  1  0
114288  1  0
115289  1  0
116290  1  0
116291  1  0
116292  1  0
117293  1  0
117294  1  0
117295  1  0
120296  1  0
121297  1  1
122298  1  0
122299  1  0
123300  1  0
126301  1  0
127302  1  1
128303  1  0
128304  1  0
129305  1  0
129306  1  0
130307  1  0
130308  1  0
131309  1  0
133310  1  0
134311  1  0
134312  1  0
137313  1  0
139314  1  0
139315  1  0
140316  1  0
140317  1  0
141318  1  0
141319  1  0
142320  1  0
143321  1  0
143322  1  0
143323  1  0
146324  1  0
147325  1  6
148326  1  0
148327  1  0
150328  1  0
151329  1  0
152330  1  0
156331  1  0
157332  1  1
158333  1  0
158334  1  0
160335  1  0
161336  1  0
162337  1  0
166338  1  0
167339  1  6
168340  1  0
168341  1  0
169342  1  0
172343  1  0
173344  1  1
174345  1  1
175346  1  0
176347  1  0
176348  1  0
176349  1  0
179350  1  0
M  END
