
     RDKit          2D

304311  0  0  0  0  0  0  0  0999 V2000
   25.3522   -3.1006    0.0000 C   0  0  0  0  0  0  0  0  0  0  0  0
   26.7596   -2.5816    0.0000 N   0  0  0  0  0  0  0  0  0  0  0  0
   27.9127   -3.5408    0.0000 C   0  0  0  0  0  0  0  0  0  0  0  0
   27.6586   -5.0192    0.0000 C   0  0  0  0  0  0  0  0  0  0  0  0
   28.8117   -5.9784    0.0000 C   0  0  0  0  0  0  0  0  0  0  0  0
   30.2191   -5.4594    0.0000 C   0  0  0  0  0  0  0  0  0  0  0  0
   30.4732   -3.9811    0.0000 C   0  0  0  0  0  0  0  0  0  0  0  0
   29.3201   -3.0218    0.0000 C   0  0  0  0  0  0  0  0  0  0  0  0
   31.9577   -3.7660    0.0000 C   0  0  0  0  0  0  0  0  0  0  0  0
   32.6210   -5.1113    0.0000 O   0  0  0  0  0  0  0  0  0  0  0  0
   31.5465   -6.1579    0.0000 C   0  0  0  0  0  0  0  0  0  0  0  0
   31.7616   -7.6424    0.0000 O   0  0  0  0  0  0  0  0  0  0  0  0
   33.4566   -3.7072    0.0000 C   0  0  0  0  0  0  0  0  0  0  0  0
   34.1551   -2.3798    0.0000 C   0  0  0  0  0  0  0  0  0  0  0  0
   35.6540   -2.3210    0.0000 C   0  0  0  0  0  0  0  0  0  0  0  0
   36.4543   -3.5897    0.0000 C   0  0  0  0  0  0  0  0  0  0  0  0
   35.7557   -4.9171    0.0000 C   0  0  0  0  0  0  0  0  0  0  0  0
   34.2569   -4.9759    0.0000 C   0  0  0  0  0  0  0  0  0  0  0  0
   37.9531   -3.5309    0.0000 O   0  0  0  0  0  0  0  0  0  0  0  0
   33.3548   -1.1111    0.0000 O   0  0  0  0  0  0  0  0  0  0  0  0
   31.8560   -1.1699    0.0000 C   0  0  0  0  0  0  0  0  0  0  0  0
   31.1574   -2.4973    0.0000 C   0  0  0  0  0  0  0  0  0  0  0  0
   29.9846   -1.9366    0.0000 C   0  0  0  0  0  0  0  0  0  0  0  0
   29.5577   -1.2600    0.0000 C   0  0  0  0  0  0  0  0  0  0  0  0
   29.9303   -0.5520    0.0000 C   0  0  0  0  0  0  0  0  0  0  0  0
   30.7297   -0.5207    0.0000 C   0  0  0  0  0  0  0  0  0  0  0  0
   28.7565    1.3087    0.0000 O   0  0  0  0  0  0  0  0  0  0  0  0
   25.0981   -4.5789    0.0000 S   0  0  0  0  0  0  0  0  0  0  0  0
   24.1990   -2.1414    0.0000 N   0  0  0  0  0  0  0  0  0  0  0  0
   22.7917   -2.6604    0.0000 C   0  0  0  0  0  0  0  0  0  0  0  0
   21.6385   -1.7011    0.0000 C   0  0  0  0  0  0  0  0  0  0  0  0
   20.2312   -2.2202    0.0000 C   0  0  0  0  0  0  0  0  0  0  0  0
   19.9770   -3.6985    0.0000 O   0  0  0  0  0  0  0  0  0  0  0  0
   19.0780   -1.2609    0.0000 N   0  0  0  0  0  0  0  0  0  0  0  0
   17.6707   -1.7800    0.0000 C   0  0  0  0  0  0  0  0  0  0  0  0
   16.5258   -2.7491    0.0000 C   0  0  0  0  0  0  0  0  0  0  0  0
   15.1140   -2.2421    0.0000 C   0  0  0  0  0  0  0  0  0  0  0  0
   13.9691   -3.2111    0.0000 N   0  0  0  0  0  0  0  0  0  0  0  0
   14.7867   -1.5152    0.0000 O   0  0  0  0  0  0  0  0  0  0  0  0
   16.5175   -0.8207    0.0000 C   0  0  0  0  0  0  0  0  0  0  0  0
   16.7717    0.6576    0.0000 O   0  0  0  0  0  0  0  0  0  0  0  0
   15.1102   -1.3398    0.0000 N   0  0  0  0  0  0  0  0  0  0  0  0
   13.9570   -0.3805    0.0000 C   0  0  0  0  0  0  0  0  0  0  0  0
   13.2015    0.9153    0.0000 C   0  0  0  0  0  0  0  0  0  0  0  0
   11.7015    0.9089    0.0000 C   0  0  0  0  0  0  0  0  0  0  0  0
   10.9459    2.2047    0.0000 C   0  0  0  0  0  0  0  0  0  0  0  0
    9.4564    2.3812    0.0000 O   0  0  0  0  0  0  0  0  0  0  0  0
   11.6904    3.5070    0.0000 O   0  0  0  0  0  0  0  0  0  0  0  0
   12.5497   -0.8995    0.0000 C   0  0  0  0  0  0  0  0  0  0  0  0
   12.1172   -2.3358    0.0000 O   0  0  0  0  0  0  0  0  0  0  0  0
   11.3965    0.0597    0.0000 N   0  0  0  0  0  0  0  0  0  0  0  0
    9.9892   -0.4593    0.0000 C   0  0  0  0  0  0  0  0  0  0  0  0
    8.8442   -1.4284    0.0000 C   0  0  0  0  0  0  0  0  0  0  0  0
    7.4325   -0.9214    0.0000 C   0  0  0  0  0  0  0  0  0  0  0  0
    6.2876   -1.8905    0.0000 C   0  0  0  0  0  0  0  0  0  0  0  0
    6.2793    0.0379    0.0000 C   0  0  0  0  0  0  0  0  0  0  0  0
    8.8360    0.4999    0.0000 C   0  0  0  0  0  0  0  0  0  0  0  0
    8.9080    1.9982    0.0000 O   0  0  0  0  0  0  0  0  0  0  0  0
    7.4286   -0.0191    0.0000 N   0  0  0  0  0  0  0  0  0  0  0  0
    6.2755    0.9402    0.0000 C   0  0  0  0  0  0  0  0  0  0  0  0
    5.5199    2.2360    0.0000 C   0  0  0  0  0  0  0  0  0  0  0  0
    6.2644    3.5382    0.0000 C   0  0  0  0  0  0  0  0  0  0  0  0
    5.5088    4.8340    0.0000 C   0  0  0  0  0  0  0  0  0  0  0  0
    6.2533    6.1363    0.0000 C   0  0  0  0  0  0  0  0  0  0  0  0
    5.4977    7.4321    0.0000 N   0  0  0  0  0  0  0  0  0  0  0  0
    4.8681    0.4211    0.0000 C   0  0  0  0  0  0  0  0  0  0  0  0
    4.4357   -1.0152    0.0000 O   0  0  0  0  0  0  0  0  0  0  0  0
    3.7150    1.3804    0.0000 N   0  0  0  0  0  0  0  0  0  0  0  0
    2.3076    0.8613    0.0000 C   0  0  0  0  0  0  0  0  0  0  0  0
    1.7656   -0.5373    0.0000 C   0  0  0  0  0  0  0  0  0  0  0  0
    0.8354   -1.7140    0.0000 C   0  0  0  0  0  0  0  0  0  0  0  0
   -0.4004   -2.5643    0.0000 C   0  0  0  0  0  0  0  0  0  0  0  0
   -1.8318   -3.0126    0.0000 C   0  0  0  0  0  0  0  0  0  0  0  0
    3.4821   -0.0718    0.0000 C   0  0  0  0  0  0  0  0  0  0  0  0
    2.4133    2.3576    0.0000 C   0  0  0  0  0  0  0  0  0  0  0  0
    3.8355    2.8344    0.0000 O   0  0  0  0  0  0  0  0  0  0  0  0
    2.0733    3.8185    0.0000 N   0  0  0  0  0  0  0  0  0  0  0  0
    1.3178    5.1144    0.0000 C   0  0  0  0  0  0  0  0  0  0  0  0
    1.7894    6.5383    0.0000 C   0  0  0  0  0  0  0  0  0  0  0  0
    3.2584    6.8418    0.0000 O   0  0  0  0  0  0  0  0  0  0  0  0
    0.2138    6.1299    0.0000 C   0  0  0  0  0  0  0  0  0  0  0  0
    1.0535    7.3729    0.0000 O   0  0  0  0  0  0  0  0  0  0  0  0
   -1.1404    6.7750    0.0000 N   0  0  0  0  0  0  0  0  0  0  0  0
   -2.6246    6.9922    0.0000 C   0  0  0  0  0  0  0  0  0  0  0  0
   -3.4438    8.2487    0.0000 C   0  0  0  0  0  0  0  0  0  0  0  0
   -2.7652    9.5865    0.0000 C   0  0  0  0  0  0  0  0  0  0  0  0
   -1.2674    9.6676    0.0000 C   0  0  0  0  0  0  0  0  0  0  0  0
   -0.5887   11.0054    0.0000 C   0  0  0  0  0  0  0  0  0  0  0  0
   -1.4079   12.2619    0.0000 C   0  0  0  0  0  0  0  0  0  0  0  0
   -2.9057   12.1807    0.0000 C   0  0  0  0  0  0  0  0  0  0  0  0
   -3.5844   10.8430    0.0000 C   0  0  0  0  0  0  0  0  0  0  0  0
   -4.1068    6.7623    0.0000 C   0  0  0  0  0  0  0  0  0  0  0  0
   -4.5551    8.1938    0.0000 O   0  0  0  0  0  0  0  0  0  0  0  0
   -5.4555    6.1057    0.0000 N   0  0  0  0  0  0  0  0  0  0  0  0
   -6.5507    5.0808    0.0000 C   0  0  0  0  0  0  0  0  0  0  0  0
   -8.0439    5.2237    0.0000 C   0  0  0  0  0  0  0  0  0  0  0  0
   -8.6667    6.5883    0.0000 C   0  0  0  0  0  0  0  0  0  0  0  0
   -7.7962    7.8100    0.0000 C   0  0  0  0  0  0  0  0  0  0  0  0
   -8.4190    9.1746    0.0000 C   0  0  0  0  0  0  0  0  0  0  0  0
   -9.9122    9.3176    0.0000 C   0  0  0  0  0  0  0  0  0  0  0  0
  -10.7826    8.0959    0.0000 C   0  0  0  0  0  0  0  0  0  0  0  0
  -10.1598    6.7313    0.0000 C   0  0  0  0  0  0  0  0  0  0  0  0
   -7.2952    3.7785    0.0000 C   0  0  0  0  0  0  0  0  0  0  0  0
   -8.6938    4.3206    0.0000 O   0  0  0  0  0  0  0  0  0  0  0  0
   -7.6227    2.3147    0.0000 N   0  0  0  0  0  0  0  0  0  0  0  0
   -7.5042    0.8194    0.0000 C   0  0  0  0  0  0  0  0  0  0  0  0
   -6.9502   -0.5745    0.0000 C   0  0  0  0  0  0  0  0  0  0  0  0
   -6.0100   -1.7433    0.0000 C   0  0  0  0  0  0  0  0  0  0  0  0
   -4.7670   -2.5830    0.0000 C   0  0  0  0  0  0  0  0  0  0  0  0
   -3.3318   -3.0190    0.0000 C   0  0  0  0  0  0  0  0  0  0  0  0
   -8.9159    1.3264    0.0000 C   0  0  0  0  0  0  0  0  0  0  0  0
   -8.5470   -0.2589    0.0000 C   0  0  0  0  0  0  0  0  0  0  0  0
   -8.4958   -1.7580    0.0000 O   0  0  0  0  0  0  0  0  0  0  0  0
  -10.0021    0.1051    0.0000 N   0  0  0  0  0  0  0  0  0  0  0  0
  -11.0449   -0.9732    0.0000 C   0  0  0  0  0  0  0  0  0  0  0  0
  -11.6560   -2.3431    0.0000 C   0  0  0  0  0  0  0  0  0  0  0  0
  -13.1479   -2.4988    0.0000 C   0  0  0  0  0  0  0  0  0  0  0  0
  -13.7590   -3.8687    0.0000 C   0  0  0  0  0  0  0  0  0  0  0  0
  -14.6031   -2.1349    0.0000 C   0  0  0  0  0  0  0  0  0  0  0  0
  -12.5001   -0.6093    0.0000 C   0  0  0  0  0  0  0  0  0  0  0  0
  -12.9125    0.8329    0.0000 O   0  0  0  0  0  0  0  0  0  0  0  0
  -13.5428   -1.6875    0.0000 N   0  0  0  0  0  0  0  0  0  0  0  0
  -14.9980   -1.3236    0.0000 C   0  0  0  0  0  0  0  0  0  0  0  0
  -16.2410   -0.4839    0.0000 C   0  0  0  0  0  0  0  0  0  0  0  0
  -16.1353    1.0123    0.0000 C   0  0  0  0  0  0  0  0  0  0  0  0
  -17.3782    1.8520    0.0000 C   0  0  0  0  0  0  0  0  0  0  0  0
  -17.2725    3.3483    0.0000 N   0  0  0  0  0  0  0  0  0  0  0  0
  -18.5155    4.1880    0.0000 C   0  0  0  0  0  0  0  0  0  0  0  0
  -18.4098    5.6842    0.0000 N   0  0  0  0  0  0  0  0  0  0  0  0
  -19.8642    3.5314    0.0000 N   0  0  0  0  0  0  0  0  0  0  0  0
  -16.0408   -2.4019    0.0000 C   0  0  0  0  0  0  0  0  0  0  0  0
  -15.8072   -3.8836    0.0000 O   0  0  0  0  0  0  0  0  0  0  0  0
  -17.4960   -2.0380    0.0000 N   0  0  0  0  0  0  0  0  0  0  0  0
  -18.5387   -3.1162    0.0000 C   0  0  0  0  0  0  0  0  0  0  0  0
  -19.1498   -4.4861    0.0000 C   0  0  0  0  0  0  0  0  0  0  0  0
  -20.6417   -4.6418    0.0000 C   0  0  0  0  0  0  0  0  0  0  0  0
  -21.2528   -6.0117    0.0000 O   0  0  0  0  0  0  0  0  0  0  0  0
  -21.7901   -3.6769    0.0000 O   0  0  0  0  0  0  0  0  0  0  0  0
  -19.9939   -2.7523    0.0000 C   0  0  0  0  0  0  0  0  0  0  0  0
  -20.4063   -1.3101    0.0000 O   0  0  0  0  0  0  0  0  0  0  0  0
  -21.0367   -3.8306    0.0000 N   0  0  0  0  0  0  0  0  0  0  0  0
  -22.4919   -3.4666    0.0000 C   0  0  0  0  0  0  0  0  0  0  0  0
  -23.7348   -2.6270    0.0000 C   0  0  0  0  0  0  0  0  0  0  0  0
  -25.0835   -3.2836    0.0000 C   0  0  0  0  0  0  0  0  0  0  0  0
  -26.3264   -2.4439    0.0000 C   0  0  0  0  0  0  0  0  0  0  0  0
  -27.7451   -2.9312    0.0000 N   0  0  0  0  0  0  0  0  0  0  0  0
  -26.2207   -0.9476    0.0000 O   0  0  0  0  0  0  0  0  0  0  0  0
  -23.5346   -4.5449    0.0000 C   0  0  0  0  0  0  0  0  0  0  0  0
  -23.1222   -5.9871    0.0000 O   0  0  0  0  0  0  0  0  0  0  0  0
  -24.9898   -4.1810    0.0000 N   0  0  0  0  0  0  0  0  0  0  0  0
  -26.0326   -5.2592    0.0000 C   0  0  0  0  0  0  0  0  0  0  0  0
  -26.6436   -6.6291    0.0000 C   0  0  0  0  0  0  0  0  0  0  0  0
  -28.1355   -6.7849    0.0000 C   0  0  0  0  0  0  0  0  0  0  0  0
  -26.7493   -8.1254    0.0000 C   0  0  0  0  0  0  0  0  0  0  0  0
  -25.5064   -8.9651    0.0000 C   0  0  0  0  0  0  0  0  0  0  0  0
  -27.4877   -4.8953    0.0000 C   0  0  0  0  0  0  0  0  0  0  0  0
  -28.6542   -5.8384    0.0000 O   0  0  0  0  0  0  0  0  0  0  0  0
  -28.0729   -3.5142    0.0000 O   0  0  0  0  0  0  0  0  0  0  0  0
   26.8316   -1.0833    0.0000 H   0  0  0  0  0  0  0  0  0  0  0  0
   26.2512   -5.5382    0.0000 H   0  0  0  0  0  0  0  0  0  0  0  0
   28.5576   -7.4567    0.0000 H   0  0  0  0  0  0  0  0  0  0  0  0
   29.2090   -1.5259    0.0000 H   0  0  0  0  0  0  0  0  0  0  0  0
   36.3525   -0.9936    0.0000 H   0  0  0  0  0  0  0  0  0  0  0  0
   36.5560   -6.1858    0.0000 H   0  0  0  0  0  0  0  0  0  0  0  0
   33.5583   -6.3033    0.0000 H   0  0  0  0  0  0  0  0  0  0  0  0
   38.7534   -4.7996    0.0000 H   0  0  0  0  0  0  0  0  0  0  0  0
   28.9600   -3.8835    0.0000 H   0  0  0  0  0  0  0  0  0  0  0  0
   27.3634   -1.1630    0.0000 H   0  0  0  0  0  0  0  0  0  0  0  0
   31.7542    1.4262    0.0000 H   0  0  0  0  0  0  0  0  0  0  0  0
   29.4551    2.6361    0.0000 H   0  0  0  0  0  0  0  0  0  0  0  0
   24.4532   -0.6631    0.0000 H   0  0  0  0  0  0  0  0  0  0  0  0
   21.6468   -3.6295    0.0000 H   0  0  0  0  0  0  0  0  0  0  0  0
   23.5472   -3.9562    0.0000 H   0  0  0  0  0  0  0  0  0  0  0  0
   20.8830   -0.4053    0.0000 H   0  0  0  0  0  0  0  0  0  0  0  0
   22.7835   -0.7321    0.0000 H   0  0  0  0  0  0  0  0  0  0  0  0
   19.3322    0.2174    0.0000 H   0  0  0  0  0  0  0  0  0  0  0  0
   18.4262   -3.0758    0.0000 H   0  0  0  0  0  0  0  0  0  0  0  0
   15.7813   -4.0513    0.0000 H   0  0  0  0  0  0  0  0  0  0  0  0
   17.6789   -3.7083    0.0000 H   0  0  0  0  0  0  0  0  0  0  0  0
   12.5061   -2.8800    0.0000 H   0  0  0  0  0  0  0  0  0  0  0  0
   14.2359   -4.6872    0.0000 H   0  0  0  0  0  0  0  0  0  0  0  0
   14.5059   -2.7126    0.0000 H   0  0  0  0  0  0  0  0  0  0  0  0
   15.1019    0.5886    0.0000 H   0  0  0  0  0  0  0  0  0  0  0  0
   12.9347    2.3914    0.0000 H   0  0  0  0  0  0  0  0  0  0  0  0
   14.6088    1.4344    0.0000 H   0  0  0  0  0  0  0  0  0  0  0  0
   10.2941    0.3899    0.0000 H   0  0  0  0  0  0  0  0  0  0  0  0
   11.2439   -0.5196    0.0000 H   0  0  0  0  0  0  0  0  0  0  0  0
   10.9348    4.8028    0.0000 H   0  0  0  0  0  0  0  0  0  0  0  0
   11.2854    1.5556    0.0000 H   0  0  0  0  0  0  0  0  0  0  0  0
   10.7447   -1.7551    0.0000 H   0  0  0  0  0  0  0  0  0  0  0  0
    8.2641   -2.8117    0.0000 H   0  0  0  0  0  0  0  0  0  0  0  0
    9.9974   -2.3877    0.0000 H   0  0  0  0  0  0  0  0  0  0  0  0
    7.4783    0.5779    0.0000 H   0  0  0  0  0  0  0  0  0  0  0  0
    4.7879   -1.9232    0.0000 H   0  0  0  0  0  0  0  0  0  0  0  0
    5.5431   -3.1927    0.0000 H   0  0  0  0  0  0  0  0  0  0  0  0
    7.3152   -2.9832    0.0000 H   0  0  0  0  0  0  0  0  0  0  0  0
    4.9458   -0.6489    0.0000 H   0  0  0  0  0  0  0  0  0  0  0  0
    5.5238    1.3337    0.0000 H   0  0  0  0  0  0  0  0  0  0  0  0
    7.5339    0.8602    0.0000 H   0  0  0  0  0  0  0  0  0  0  0  0
    6.8243   -1.3920    0.0000 H   0  0  0  0  0  0  0  0  0  0  0  0
    7.4204    1.9092    0.0000 H   0  0  0  0  0  0  0  0  0  0  0  0
    4.4923    3.3287    0.0000 H   0  0  0  0  0  0  0  0  0  0  0  0
    4.2654    1.4137    0.0000 H   0  0  0  0  0  0  0  0  0  0  0  0
    7.5189    4.3605    0.0000 H   0  0  0  0  0  0  0  0  0  0  0  0
    7.5259    2.7267    0.0000 H   0  0  0  0  0  0  0  0  0  0  0  0
    4.3557    5.7933    0.0000 H   0  0  0  0  0  0  0  0  0  0  0  0
    4.2543    4.0117    0.0000 H   0  0  0  0  0  0  0  0  0  0  0  0
    7.3982    7.1053    0.0000 H   0  0  0  0  0  0  0  0  0  0  0  0
    7.5148    5.3247    0.0000 H   0  0  0  0  0  0  0  0  0  0  0  0
    6.2422    8.7343    0.0000 H   0  0  0  0  0  0  0  0  0  0  0  0
    4.0082    7.6086    0.0000 H   0  0  0  0  0  0  0  0  0  0  0  0
    3.9691    2.8587    0.0000 H   0  0  0  0  0  0  0  0  0  0  0  0
    3.2621   -0.6393    0.0000 H   0  0  0  0  0  0  0  0  0  0  0  0
    2.4556   -1.8692    0.0000 H   0  0  0  0  0  0  0  0  0  0  0  0
    2.1593   -2.4193    0.0000 H   0  0  0  0  0  0  0  0  0  0  0  0
    1.2801   -3.1466    0.0000 H   0  0  0  0  0  0  0  0  0  0  0  0
    0.7787   -3.4916    0.0000 H   0  0  0  0  0  0  0  0  0  0  0  0
   -0.5805   -4.0535    0.0000 H   0  0  0  0  0  0  0  0  0  0  0  0
   -1.6019   -4.4948    0.0000 H   0  0  0  0  0  0  0  0  0  0  0  0
    3.3578   -1.7331    0.0000 H   0  0  0  0  0  0  0  0  0  0  0  0
    4.3519   -1.2426    0.0000 H   0  0  0  0  0  0  0  0  0  0  0  0
    4.5693    0.6734    0.0000 H   0  0  0  0  0  0  0  0  0  0  0  0
    3.4673    4.3725    0.0000 H   0  0  0  0  0  0  0  0  0  0  0  0
    2.8097    5.2701    0.0000 H   0  0  0  0  0  0  0  0  0  0  0  0
    1.7456    8.0377    0.0000 H   0  0  0  0  0  0  0  0  0  0  0  0
    0.4019    7.1082    0.0000 H   0  0  0  0  0  0  0  0  0  0  0  0
    3.5530    8.3126    0.0000 H   0  0  0  0  0  0  0  0  0  0  0  0
   -0.5327    8.1464    0.0000 H   0  0  0  0  0  0  0  0  0  0  0  0
   -1.8161    8.2557    0.0000 H   0  0  0  0  0  0  0  0  0  0  0  0
   -4.6433    9.1493    0.0000 H   0  0  0  0  0  0  0  0  0  0  0  0
   -4.7544    7.5193    0.0000 H   0  0  0  0  0  0  0  0  0  0  0  0
   -0.3011    8.5203    0.0000 H   0  0  0  0  0  0  0  0  0  0  0  0
    0.9091   11.0865    0.0000 H   0  0  0  0  0  0  0  0  0  0  0  0
   -0.7293   13.5996    0.0000 H   0  0  0  0  0  0  0  0  0  0  0  0
   -3.7249   13.4373    0.0000 H   0  0  0  0  0  0  0  0  0  0  0  0
   -5.0822   10.7618    0.0000 H   0  0  0  0  0  0  0  0  0  0  0  0
   -6.1488    7.4359    0.0000 H   0  0  0  0  0  0  0  0  0  0  0  0
   -7.0345    6.5006    0.0000 H   0  0  0  0  0  0  0  0  0  0  0  0
   -9.4959    4.8474    0.0000 H   0  0  0  0  0  0  0  0  0  0  0  0
   -8.2908    3.7442    0.0000 H   0  0  0  0  0  0  0  0  0  0  0  0
   -6.2968    7.8501    0.0000 H   0  0  0  0  0  0  0  0  0  0  0  0
   -7.5486   10.3962    0.0000 H   0  0  0  0  0  0  0  0  0  0  0  0
  -10.5350   10.6822    0.0000 H   0  0  0  0  0  0  0  0  0  0  0  0
  -12.2758    8.2389    0.0000 H   0  0  0  0  0  0  0  0  0  0  0  0
  -11.0302    5.5097    0.0000 H   0  0  0  0  0  0  0  0  0  0  0  0
   -9.1190    2.4204    0.0000 H   0  0  0  0  0  0  0  0  0  0  0  0
   -7.6288   -1.9123    0.0000 H   0  0  0  0  0  0  0  0  0  0  0  0
   -8.4207   -0.8708    0.0000 H   0  0  0  0  0  0  0  0  0  0  0  0
   -6.4425   -3.1796    0.0000 H   0  0  0  0  0  0  0  0  0  0  0  0
   -7.3278   -2.4598    0.0000 H   0  0  0  0  0  0  0  0  0  0  0  0
   -4.5742   -4.0705    0.0000 H   0  0  0  0  0  0  0  0  0  0  0  0
   -5.9381   -3.5203    0.0000 H   0  0  0  0  0  0  0  0  0  0  0  0
   -3.5490   -4.5032    0.0000 H   0  0  0  0  0  0  0  0  0  0  0  0
  -10.2613    0.6632    0.0000 H   0  0  0  0  0  0  0  0  0  0  0  0
   -9.9436    2.4191    0.0000 H   0  0  0  0  0  0  0  0  0  0  0  0
   -8.5087    2.7701    0.0000 H   0  0  0  0  0  0  0  0  0  0  0  0
  -10.5873    1.4862    0.0000 H   0  0  0  0  0  0  0  0  0  0  0  0
   -9.8020   -1.8129    0.0000 H   0  0  0  0  0  0  0  0  0  0  0  0
  -11.5785   -3.8411    0.0000 H   0  0  0  0  0  0  0  0  0  0  0  0
  -10.2008   -2.7070    0.0000 H   0  0  0  0  0  0  0  0  0  0  0  0
  -13.7572   -1.1281    0.0000 H   0  0  0  0  0  0  0  0  0  0  0  0
  -15.1688   -4.3808    0.0000 H   0  0  0  0  0  0  0  0  0  0  0  0
  -13.8647   -5.3650    0.0000 H   0  0  0  0  0  0  0  0  0  0  0  0
  -12.3590   -4.4073    0.0000 H   0  0  0  0  0  0  0  0  0  0  0  0
  -15.3522   -0.8353    0.0000 H   0  0  0  0  0  0  0  0  0  0  0  0
  -15.9400   -2.8150    0.0000 H   0  0  0  0  0  0  0  0  0  0  0  0
  -14.8904   -3.6071    0.0000 H   0  0  0  0  0  0  0  0  0  0  0  0
  -13.4917   -3.1867    0.0000 H   0  0  0  0  0  0  0  0  0  0  0  0
  -14.2245   -0.0384    0.0000 H   0  0  0  0  0  0  0  0  0  0  0  0
  -17.6962   -0.1200    0.0000 H   0  0  0  0  0  0  0  0  0  0  0  0
  -17.3025   -1.5438    0.0000 H   0  0  0  0  0  0  0  0  0  0  0  0
  -15.5242    2.3822    0.0000 H   0  0  0  0  0  0  0  0  0  0  0  0
  -14.6466    0.8285    0.0000 H   0  0  0  0  0  0  0  0  0  0  0  0
  -18.8334    2.2159    0.0000 H   0  0  0  0  0  0  0  0  0  0  0  0
  -18.1518    0.5668    0.0000 H   0  0  0  0  0  0  0  0  0  0  0  0
  -15.9239    4.0049    0.0000 H   0  0  0  0  0  0  0  0  0  0  0  0
  -19.6527    6.5239    0.0000 H   0  0  0  0  0  0  0  0  0  0  0  0
  -21.1071    4.3710    0.0000 H   0  0  0  0  0  0  0  0  0  0  0  0
  -19.9699    2.0351    0.0000 H   0  0  0  0  0  0  0  0  0  0  0  0
  -18.0811   -0.6568    0.0000 H   0  0  0  0  0  0  0  0  0  0  0  0
  -17.2958   -3.9559    0.0000 H   0  0  0  0  0  0  0  0  0  0  0  0
  -19.2555   -5.9824    0.0000 H   0  0  0  0  0  0  0  0  0  0  0  0
  -17.6946   -4.8500    0.0000 H   0  0  0  0  0  0  0  0  0  0  0  0
  -22.9554   -3.2899    0.0000 H   0  0  0  0  0  0  0  0  0  0  0  0
  -20.9855   -5.3297    0.0000 H   0  0  0  0  0  0  0  0  0  0  0  0
  -21.8808   -2.0968    0.0000 H   0  0  0  0  0  0  0  0  0  0  0  0
  -24.6156   -1.4128    0.0000 H   0  0  0  0  0  0  0  0  0  0  0  0
  -22.6921   -1.5487    0.0000 H   0  0  0  0  0  0  0  0  0  0  0  0
  -26.1262   -4.3618    0.0000 H   0  0  0  0  0  0  0  0  0  0  0  0
  -24.8759   -4.7691    0.0000 H   0  0  0  0  0  0  0  0  0  0  0  0
  -28.9181   -2.2608    0.0000 H   0  0  0  0  0  0  0  0  0  0  0  0
  -28.3754   -4.4733    0.0000 H   0  0  0  0  0  0  0  0  0  0  0  0
  -25.7389   -2.8814    0.0000 H   0  0  0  0  0  0  0  0  0  0  0  0
  -24.7896   -6.0989    0.0000 H   0  0  0  0  0  0  0  0  0  0  0  0
  -25.1550   -6.8130    0.0000 H   0  0  0  0  0  0  0  0  0  0  0  0
  -28.9091   -8.0700    0.0000 H   0  0  0  0  0  0  0  0  0  0  0  0
  -29.5907   -6.4209    0.0000 H   0  0  0  0  0  0  0  0  0  0  0  0
  -28.7448   -5.4142    0.0000 H   0  0  0  0  0  0  0  0  0  0  0  0
  -27.3604   -9.4953    0.0000 H   0  0  0  0  0  0  0  0  0  0  0  0
  -28.2380   -7.9416    0.0000 H   0  0  0  0  0  0  0  0  0  0  0  0
  -25.6121  -10.4613    0.0000 H   0  0  0  0  0  0  0  0  0  0  0  0
  -24.0512   -9.3290    0.0000 H   0  0  0  0  0  0  0  0  0  0  0  0
  -24.7329   -7.6799    0.0000 H   0  0  0  0  0  0  0  0  0  0  0  0
  -29.3554   -3.0892    0.0000 H   0  0  0  0  0  0  0  0  0  0  0  0
  1  2  1  0
  2  3  1  0
  3  4  2  0
  4  5  1  0
  5  6  2  0
  6  7  1  0
  7  8  2  0
  7  9  1  0
  9 10  1  0
 10 11  1  0
 11 12  2  0
  9 13  1  0
 13 14  1  0
 14 15  2  0
 15 16  1  0
 16 17  2  0
 17 18  1  0
 16 19  1  0
 14 20  1  0
 20 21  1  0
 21 22  2  0
 22 23  1  0
 23 24  2  0
 24 25  1  0
 25 26  2  0
 25 27  1  0
  1 28  2  0
  1 29  1  0
 29 30  1  0
 30 31  1  0
 31 32  1  0
 32 33  2  0
 32 34  1  0
 34 35  1  0
 35 36  1  0
 36 37  1  0
 37 38  1  0
 37 39  2  0
 35 40  1  0
 40 41  2  0
 40 42  1  0
 42 43  1  0
 43 44  1  0
 44 45  1  0
 45 46  1  0
 46 47  2  0
 46 48  1  0
 43 49  1  0
 49 50  2  0
 49 51  1  0
 51 52  1  0
 52 53  1  0
 53 54  1  0
 54 55  1  0
 54 56  1  0
 52 57  1  0
 57 58  2  0
 57 59  1  0
 59 60  1  0
 60 61  1  0
 61 62  1  0
 62 63  1  0
 63 64  1  0
 64 65  1  0
 60 66  1  0
 66 67  2  0
 66 68  1  0
 69 68  1  1
 69 70  1  0
 70 71  1  0
 71 72  1  0
 72 73  1  0
 69 74  1  0
 69 75  1  0
 75 76  2  0
 75 77  1  0
 77 78  1  0
 78 79  1  0
 79 80  1  0
 78 81  1  0
 81 82  2  0
 81 83  1  0
 83 84  1  0
 84 85  1  0
 85 86  1  0
 86 87  2  0
 87 88  1  0
 88 89  2  0
 89 90  1  0
 90 91  2  0
 84 92  1  0
 92 93  2  0
 92 94  1  0
 94 95  1  0
 95 96  1  0
 96 97  1  0
 97 98  2  0
 98 99  1  0
 99100  2  0
100101  1  0
101102  2  0
 95103  1  0
103104  2  0
103105  1  0
105106  1  0
106107  1  0
107108  1  0
108109  1  0
109110  1  0
106111  1  0
106112  1  1
112113  2  0
112114  1  0
114115  1  0
115116  1  0
116117  1  0
117118  1  0
117119  1  0
115120  1  0
120121  2  0
120122  1  0
122123  1  0
123124  1  0
124125  1  0
125126  1  0
126127  1  0
127128  1  0
128129  2  3
128130  1  0
123131  1  0
131132  2  0
131133  1  0
133134  1  0
134135  1  0
135136  1  0
136137  2  0
136138  1  0
134139  1  0
139140  2  0
139141  1  0
141142  1  0
142143  1  0
143144  1  0
144145  1  0
145146  1  0
145147  2  0
142148  1  0
148149  2  0
148150  1  0
150151  1  0
151152  1  0
152153  1  0
152154  1  0
154155  1  0
151156  1  0
156157  2  0
156158  1  0
  8  3  1  0
 91 86  1  0
102 97  1  0
 11  6  1  0
 73110  2  0
 18 13  2  0
 22  9  1  0
 26 21  1  0
  2159  1  0
  4160  1  0
  5161  1  0
  8162  1  0
 15163  1  0
 17164  1  0
 18165  1  0
 19166  1  0
 23167  1  0
 24168  1  0
 26169  1  0
 27170  1  0
 29171  1  0
 30172  1  0
 30173  1  0
 31174  1  0
 31175  1  0
 34176  1  0
 35177  1  1
 36178  1  0
 36179  1  0
 38180  1  0
 38181  1  0
 42182  1  0
 43183  1  6
 44184  1  0
 44185  1  0
 45186  1  0
 45187  1  0
 48188  1  0
 51189  1  0
 52190  1  1
 53191  1  0
 53192  1  0
 54193  1  0
 55194  1  0
 55195  1  0
 55196  1  0
 56197  1  0
 56198  1  0
 56199  1  0
 59200  1  0
 60201  1  6
 61202  1  0
 61203  1  0
 62204  1  0
 62205  1  0
 63206  1  0
 63207  1  0
 64208  1  0
 64209  1  0
 65210  1  0
 65211  1  0
 68212  1  0
 70213  1  0
 70214  1  0
 71215  1  0
 71216  1  0
 72217  1  0
 72218  1  0
 73219  1  0
 74220  1  0
 74221  1  0
 74222  1  0
 77223  1  0
 78224  1  6
 79225  1  0
 79226  1  0
 80227  1  0
 83228  1  0
 84229  1  6
 85230  1  0
 85231  1  0
 87232  1  0
 88233  1  0
 89234  1  0
 90235  1  0
 91236  1  0
 94237  1  0
 95238  1  6
 96239  1  0
 96240  1  0
 98241  1  0
 99242  1  0
100243  1  0
101244  1  0
102245  1  0
105246  1  0
107247  1  0
107248  1  0
108249  1  0
108250  1  0
109251  1  0
109252  1  0
110253  1  0
111254  1  0
111255  1  0
111256  1  0
114257  1  0
115258  1  1
116259  1  0
116260  1  0
117261  1  0
118262  1  0
118263  1  0
118264  1  0
119265  1  0
119266  1  0
119267  1  0
122268  1  0
123269  1  6
124270  1  0
124271  1  0
125272  1  0
125273  1  0
126274  1  0
126275  1  0
127276  1  0
129277  1  0
130278  1  0
130279  1  0
133280  1  0
134281  1  1
135282  1  0
135283  1  0
138284  1  0
141285  1  0
142286  1  6
143287  1  0
143288  1  0
144289  1  0
144290  1  0
146291  1  0
146292  1  0
150293  1  0
151294  1  1
152295  1  1
153296  1  0
153297  1  0
153298  1  0
154299  1  0
154300  1  0
155301  1  0
155302  1  0
155303  1  0
158304  1  0
M  END
