
     RDKit          2D

423424  0  0  0  0  0  0  0  0999 V2000
  -37.4672  -13.0565    0.0000 N   0  0  0  0  0  0  0  0  0  0  0  0
  -36.1185  -12.3999    0.0000 C   0  0  0  0  0  0  0  0  0  0  0  0
  -36.0128  -10.9036    0.0000 C   0  0  0  0  0  0  0  0  0  0  0  0
  -34.6641  -10.2471    0.0000 C   0  0  0  0  0  0  0  0  0  0  0  0
  -33.4212  -11.0868    0.0000 O   0  0  0  0  0  0  0  0  0  0  0  0
  -34.5584   -8.7508    0.0000 N   0  0  0  0  0  0  0  0  0  0  0  0
  -33.2097   -8.0942    0.0000 C   0  0  0  0  0  0  0  0  0  0  0  0
  -34.0905   -6.8801    0.0000 C   0  0  0  0  0  0  0  0  0  0  0  0
  -35.5903   -6.8527    0.0000 O   0  0  0  0  0  0  0  0  0  0  0  0
  -31.7178   -7.9385    0.0000 C   0  0  0  0  0  0  0  0  0  0  0  0
  -30.9443   -6.6534    0.0000 O   0  0  0  0  0  0  0  0  0  0  0  0
  -30.8370   -9.1527    0.0000 N   0  0  0  0  0  0  0  0  0  0  0  0
  -29.3452   -8.9970    0.0000 C   0  0  0  0  0  0  0  0  0  0  0  0
  -29.4509  -10.4933    0.0000 C   0  0  0  0  0  0  0  0  0  0  0  0
  -30.7996  -11.1498    0.0000 C   0  0  0  0  0  0  0  0  0  0  0  0
  -30.9053  -12.6461    0.0000 C   0  0  0  0  0  0  0  0  0  0  0  0
  -32.2540  -13.3027    0.0000 O   0  0  0  0  0  0  0  0  0  0  0  0
  -29.6623  -13.4858    0.0000 O   0  0  0  0  0  0  0  0  0  0  0  0
  -27.9965   -8.3404    0.0000 C   0  0  0  0  0  0  0  0  0  0  0  0
  -26.8652   -9.3254    0.0000 O   0  0  0  0  0  0  0  0  0  0  0  0
  -27.8907   -6.8442    0.0000 N   0  0  0  0  0  0  0  0  0  0  0  0
  -26.5421   -6.1876    0.0000 C   0  0  0  0  0  0  0  0  0  0  0  0
  -25.2028   -6.8632    0.0000 C   0  0  0  0  0  0  0  0  0  0  0  0
  -23.7599   -7.2731    0.0000 C   0  0  0  0  0  0  0  0  0  0  0  0
  -22.2655   -7.4026    0.0000 C   0  0  0  0  0  0  0  0  0  0  0  0
  -20.7736   -7.2469    0.0000 C   0  0  0  0  0  0  0  0  0  0  0  0
  -19.3382   -6.8116    0.0000 C   0  0  0  0  0  0  0  0  0  0  0  0
  -18.0110   -6.1126    0.0000 C   0  0  0  0  0  0  0  0  0  0  0  0
  -16.8401   -5.1751    0.0000 C   0  0  0  0  0  0  0  0  0  0  0  0
  -26.7355   -7.6751    0.0000 C   0  0  0  0  0  0  0  0  0  0  0  0
  -27.7293   -5.2707    0.0000 C   0  0  0  0  0  0  0  0  0  0  0  0
  -28.8806   -6.2322    0.0000 O   0  0  0  0  0  0  0  0  0  0  0  0
  -28.7215   -4.1458    0.0000 N   0  0  0  0  0  0  0  0  0  0  0  0
  -29.4829   -2.8534    0.0000 C   0  0  0  0  0  0  0  0  0  0  0  0
  -30.3027   -4.1095    0.0000 C   0  0  0  0  0  0  0  0  0  0  0  0
  -31.8005   -4.0275    0.0000 C   0  0  0  0  0  0  0  0  0  0  0  0
  -32.6204   -5.2836    0.0000 C   0  0  0  0  0  0  0  0  0  0  0  0
  -33.1799   -3.4382    0.0000 C   0  0  0  0  0  0  0  0  0  0  0  0
  -29.9859   -1.4403    0.0000 C   0  0  0  0  0  0  0  0  0  0  0  0
  -31.4743   -1.6267    0.0000 O   0  0  0  0  0  0  0  0  0  0  0  0
  -30.2124    0.0425    0.0000 N   0  0  0  0  0  0  0  0  0  0  0  0
  -30.1542    1.5414    0.0000 C   0  0  0  0  0  0  0  0  0  0  0  0
  -31.5230    0.9280    0.0000 C   0  0  0  0  0  0  0  0  0  0  0  0
  -32.7387    1.8067    0.0000 C   0  0  0  0  0  0  0  0  0  0  0  0
  -29.8134    3.0022    0.0000 C   0  0  0  0  0  0  0  0  0  0  0  0
  -31.1663    3.6500    0.0000 O   0  0  0  0  0  0  0  0  0  0  0  0
  -29.2023    4.3720    0.0000 N   0  0  0  0  0  0  0  0  0  0  0  0
  -28.3430    5.6015    0.0000 C   0  0  0  0  0  0  0  0  0  0  0  0
  -29.8261    5.8255    0.0000 C   0  0  0  0  0  0  0  0  0  0  0  0
  -27.2665    6.6461    0.0000 C   0  0  0  0  0  0  0  0  0  0  0  0
  -28.2041    7.8170    0.0000 O   0  0  0  0  0  0  0  0  0  0  0  0
  -26.0118    7.4681    0.0000 N   0  0  0  0  0  0  0  0  0  0  0  0
  -24.6242    8.0379    0.0000 C   0  0  0  0  0  0  0  0  0  0  0  0
  -25.7508    9.0281    0.0000 C   0  0  0  0  0  0  0  0  0  0  0  0
  -25.4565   10.4990    0.0000 C   0  0  0  0  0  0  0  0  0  0  0  0
  -26.5832   11.4893    0.0000 C   0  0  0  0  0  0  0  0  0  0  0  0
  -26.2889   12.9601    0.0000 O   0  0  0  0  0  0  0  0  0  0  0  0
  -28.0041   11.0087    0.0000 O   0  0  0  0  0  0  0  0  0  0  0  0
  -23.1539    8.3347    0.0000 C   0  0  0  0  0  0  0  0  0  0  0  0
  -23.1265    9.8344    0.0000 O   0  0  0  0  0  0  0  0  0  0  0  0
  -21.6539    8.3478    0.0000 N   0  0  0  0  0  0  0  0  0  0  0  0
  -20.1786    8.0769    0.0000 C   0  0  0  0  0  0  0  0  0  0  0  0
  -20.5910    9.5191    0.0000 C   0  0  0  0  0  0  0  0  0  0  0  0
  -18.7812    7.5317    0.0000 C   0  0  0  0  0  0  0  0  0  0  0  0
  -18.1056    8.8709    0.0000 O   0  0  0  0  0  0  0  0  0  0  0  0
  -17.5122    6.7318    0.0000 N   0  0  0  0  0  0  0  0  0  0  0  0
  -16.4176    5.7063    0.0000 C   0  0  0  0  0  0  0  0  0  0  0  0
  -15.9848    7.1425    0.0000 C   0  0  0  0  0  0  0  0  0  0  0  0
  -14.5246    7.4858    0.0000 C   0  0  0  0  0  0  0  0  0  0  0  0
  -13.9441    8.8689    0.0000 C   0  0  0  0  0  0  0  0  0  0  0  0
  -12.4493    8.7442    0.0000 N   0  0  0  0  0  0  0  0  0  0  0  0
  -12.1060    7.2840    0.0000 C   0  0  0  0  0  0  0  0  0  0  0  0
  -13.3886    6.5063    0.0000 N   0  0  0  0  0  0  0  0  0  0  0  0
  -15.5368    4.4921    0.0000 C   0  0  0  0  0  0  0  0  0  0  0  0
  -14.2444    5.2535    0.0000 O   0  0  0  0  0  0  0  0  0  0  0  0
  -14.9017    3.1332    0.0000 N   0  0  0  0  0  0  0  0  0  0  0  0
  -14.5353    1.6787    0.0000 C   0  0  0  0  0  0  0  0  0  0  0  0
  -14.4507    0.1810    0.0000 C   0  0  0  0  0  0  0  0  0  0  0  0
  -14.6511   -1.3055    0.0000 C   0  0  0  0  0  0  0  0  0  0  0  0
  -15.1293   -2.7273    0.0000 C   0  0  0  0  0  0  0  0  0  0  0  0
  -15.8678   -4.0328    0.0000 C   0  0  0  0  0  0  0  0  0  0  0  0
  -13.0943    1.2619    0.0000 C   0  0  0  0  0  0  0  0  0  0  0  0
  -13.3947    2.6529    0.0000 C   0  0  0  0  0  0  0  0  0  0  0  0
  -13.4863    4.1501    0.0000 O   0  0  0  0  0  0  0  0  0  0  0  0
  -11.9807    2.1523    0.0000 N   0  0  0  0  0  0  0  0  0  0  0  0
  -10.8402    3.1265    0.0000 C   0  0  0  0  0  0  0  0  0  0  0  0
  -10.1016    4.4321    0.0000 C   0  0  0  0  0  0  0  0  0  0  0  0
   -8.6017    4.4453    0.0000 C   0  0  0  0  0  0  0  0  0  0  0  0
   -7.8631    5.7509    0.0000 C   0  0  0  0  0  0  0  0  0  0  0  0
   -7.1877    3.9447    0.0000 C   0  0  0  0  0  0  0  0  0  0  0  0
   -9.4262    2.6259    0.0000 C   0  0  0  0  0  0  0  0  0  0  0  0
   -9.1527    1.1510    0.0000 O   0  0  0  0  0  0  0  0  0  0  0  0
   -8.2856    3.6001    0.0000 N   0  0  0  0  0  0  0  0  0  0  0  0
   -6.8716    3.0995    0.0000 C   0  0  0  0  0  0  0  0  0  0  0  0
   -5.7141    2.1455    0.0000 C   0  0  0  0  0  0  0  0  0  0  0  0
   -5.9616    0.6660    0.0000 S   0  0  0  0  0  0  0  0  0  0  0  0
   -5.7311    4.0738    0.0000 C   0  0  0  0  0  0  0  0  0  0  0  0
   -5.8227    5.5709    0.0000 O   0  0  0  0  0  0  0  0  0  0  0  0
   -4.3171    3.5731    0.0000 N   0  0  0  0  0  0  0  0  0  0  0  0
   -3.1765    4.5474    0.0000 C   0  0  0  0  0  0  0  0  0  0  0  0
   -2.4380    5.8529    0.0000 C   0  0  0  0  0  0  0  0  0  0  0  0
   -2.1905    7.3324    0.0000 O   0  0  0  0  0  0  0  0  0  0  0  0
   -0.9508    6.0489    0.0000 C   0  0  0  0  0  0  0  0  0  0  0  0
   -1.7625    4.0467    0.0000 C   0  0  0  0  0  0  0  0  0  0  0  0
   -1.4891    2.5719    0.0000 O   0  0  0  0  0  0  0  0  0  0  0  0
   -0.6220    5.0210    0.0000 N   0  0  0  0  0  0  0  0  0  0  0  0
    0.7920    4.5204    0.0000 C   0  0  0  0  0  0  0  0  0  0  0  0
    1.9495    3.5663    0.0000 C   0  0  0  0  0  0  0  0  0  0  0  0
    1.7020    2.0869    0.0000 C   0  0  0  0  0  0  0  0  0  0  0  0
    2.8595    1.1328    0.0000 C   0  0  0  0  0  0  0  0  0  0  0  0
    0.9635    0.7813    0.0000 C   0  0  0  0  0  0  0  0  0  0  0  0
    1.9325    5.4946    0.0000 C   0  0  0  0  0  0  0  0  0  0  0  0
    1.6591    6.9695    0.0000 O   0  0  0  0  0  0  0  0  0  0  0  0
    3.3465    4.9940    0.0000 N   0  0  0  0  0  0  0  0  0  0  0  0
    4.4871    5.9682    0.0000 C   0  0  0  0  0  0  0  0  0  0  0  0
    5.2256    7.2738    0.0000 C   0  0  0  0  0  0  0  0  0  0  0  0
    6.7256    7.2870    0.0000 C   0  0  0  0  0  0  0  0  0  0  0  0
    7.4641    8.5926    0.0000 C   0  0  0  0  0  0  0  0  0  0  0  0
    8.1396    6.7864    0.0000 C   0  0  0  0  0  0  0  0  0  0  0  0
    5.9011    5.4676    0.0000 C   0  0  0  0  0  0  0  0  0  0  0  0
    6.1745    3.9927    0.0000 O   0  0  0  0  0  0  0  0  0  0  0  0
    7.0416    6.4418    0.0000 N   0  0  0  0  0  0  0  0  0  0  0  0
    8.4556    5.9412    0.0000 C   0  0  0  0  0  0  0  0  0  0  0  0
    9.6131    4.9872    0.0000 C   0  0  0  0  0  0  0  0  0  0  0  0
    9.3656    3.5077    0.0000 C   0  0  0  0  0  0  0  0  0  0  0  0
   10.5231    2.5537    0.0000 C   0  0  0  0  0  0  0  0  0  0  0  0
   10.2756    1.0742    0.0000 O   0  0  0  0  0  0  0  0  0  0  0  0
   11.9281    3.0791    0.0000 O   0  0  0  0  0  0  0  0  0  0  0  0
    9.5962    6.9155    0.0000 C   0  0  0  0  0  0  0  0  0  0  0  0
    9.5045    8.4127    0.0000 O   0  0  0  0  0  0  0  0  0  0  0  0
   11.0102    6.4148    0.0000 N   0  0  0  0  0  0  0  0  0  0  0  0
   12.1507    7.3891    0.0000 C   0  0  0  0  0  0  0  0  0  0  0  0
   12.8893    8.6946    0.0000 C   0  0  0  0  0  0  0  0  0  0  0  0
   12.1279    9.9870    0.0000 C   0  0  0  0  0  0  0  0  0  0  0  0
   12.8664   11.2926    0.0000 N   0  0  0  0  0  0  0  0  0  0  0  0
   10.6279    9.9739    0.0000 O   0  0  0  0  0  0  0  0  0  0  0  0
   13.5647    6.8884    0.0000 C   0  0  0  0  0  0  0  0  0  0  0  0
   14.8155    7.7164    0.0000 O   0  0  0  0  0  0  0  0  0  0  0  0
   13.8381    5.4136    0.0000 N   0  0  0  0  0  0  0  0  0  0  0  0
   15.2521    4.9130    0.0000 C   0  0  0  0  0  0  0  0  0  0  0  0
   16.7521    4.9261    0.0000 C   0  0  0  0  0  0  0  0  0  0  0  0
   15.5256    3.4381    0.0000 C   0  0  0  0  0  0  0  0  0  0  0  0
   14.3850    2.4638    0.0000 O   0  0  0  0  0  0  0  0  0  0  0  0
   16.9396    2.9375    0.0000 N   0  0  0  0  0  0  0  0  0  0  0  0
   17.2130    1.4626    0.0000 C   0  0  0  0  0  0  0  0  0  0  0  0
   16.9655   -0.0168    0.0000 C   0  0  0  0  0  0  0  0  0  0  0  0
   17.9981   -1.1049    0.0000 C   0  0  0  0  0  0  0  0  0  0  0  0
   16.2270   -1.3224    0.0000 C   0  0  0  0  0  0  0  0  0  0  0  0
   14.7270   -1.3356    0.0000 C   0  0  0  0  0  0  0  0  0  0  0  0
   18.6270    0.9620    0.0000 C   0  0  0  0  0  0  0  0  0  0  0  0
   19.7676    1.9362    0.0000 O   0  0  0  0  0  0  0  0  0  0  0  0
   18.9005   -0.5129    0.0000 N   0  0  0  0  0  0  0  0  0  0  0  0
   20.3144   -1.0135    0.0000 C   0  0  0  0  0  0  0  0  0  0  0  0
   21.8144   -1.0003    0.0000 C   0  0  0  0  0  0  0  0  0  0  0  0
   22.5529    0.3052    0.0000 C   0  0  0  0  0  0  0  0  0  0  0  0
   24.0529    0.3184    0.0000 C   0  0  0  0  0  0  0  0  0  0  0  0
   24.7914    1.6240    0.0000 N   0  0  0  0  0  0  0  0  0  0  0  0
   24.8143   -0.9740    0.0000 O   0  0  0  0  0  0  0  0  0  0  0  0
   20.5879   -2.4884    0.0000 C   0  0  0  0  0  0  0  0  0  0  0  0
   19.4473   -3.4626    0.0000 O   0  0  0  0  0  0  0  0  0  0  0  0
   22.0019   -2.9890    0.0000 N   0  0  0  0  0  0  0  0  0  0  0  0
   22.2753   -4.4639    0.0000 C   0  0  0  0  0  0  0  0  0  0  0  0
   22.0278   -5.9433    0.0000 C   0  0  0  0  0  0  0  0  0  0  0  0
   20.6229   -6.4687    0.0000 C   0  0  0  0  0  0  0  0  0  0  0  0
   20.3754   -7.9482    0.0000 O   0  0  0  0  0  0  0  0  0  0  0  0
   19.4654   -5.5147    0.0000 O   0  0  0  0  0  0  0  0  0  0  0  0
   23.6893   -4.9645    0.0000 C   0  0  0  0  0  0  0  0  0  0  0  0
   24.1405   -6.3950    0.0000 O   0  0  0  0  0  0  0  0  0  0  0  0
   24.8299   -3.9903    0.0000 N   0  0  0  0  0  0  0  0  0  0  0  0
   26.2439   -4.4909    0.0000 C   0  0  0  0  0  0  0  0  0  0  0  0
   27.4014   -5.4449    0.0000 C   0  0  0  0  0  0  0  0  0  0  0  0
   28.1627   -6.7373    0.0000 O   0  0  0  0  0  0  0  0  0  0  0  0
   28.8599   -5.0947    0.0000 C   0  0  0  0  0  0  0  0  0  0  0  0
   27.3844   -3.5166    0.0000 C   0  0  0  0  0  0  0  0  0  0  0  0
   27.1110   -2.0418    0.0000 O   0  0  0  0  0  0  0  0  0  0  0  0
   28.7984   -4.0173    0.0000 N   0  0  0  0  0  0  0  0  0  0  0  0
   29.9390   -3.0430    0.0000 C   0  0  0  0  0  0  0  0  0  0  0  0
   30.6775   -1.7374    0.0000 C   0  0  0  0  0  0  0  0  0  0  0  0
   32.1647   -1.5415    0.0000 C   0  0  0  0  0  0  0  0  0  0  0  0
   31.3529   -3.5436    0.0000 C   0  0  0  0  0  0  0  0  0  0  0  0
   31.6264   -5.0185    0.0000 O   0  0  0  0  0  0  0  0  0  0  0  0
   32.4935   -2.5694    0.0000 N   0  0  0  0  0  0  0  0  0  0  0  0
   33.9075   -3.0700    0.0000 C   0  0  0  0  0  0  0  0  0  0  0  0
   35.0650   -4.0241    0.0000 C   0  0  0  0  0  0  0  0  0  0  0  0
   34.8175   -5.5035    0.0000 C   0  0  0  0  0  0  0  0  0  0  0  0
   35.9750   -6.4576    0.0000 C   0  0  0  0  0  0  0  0  0  0  0  0
   35.7275   -7.9370    0.0000 N   0  0  0  0  0  0  0  0  0  0  0  0
   36.8850   -8.8911    0.0000 C   0  0  0  0  0  0  0  0  0  0  0  0
   36.6375  -10.3705    0.0000 N   0  0  0  0  0  0  0  0  0  0  0  0
   38.2900   -8.3657    0.0000 N   0  0  0  0  0  0  0  0  0  0  0  0
   35.0480   -2.0958    0.0000 C   0  0  0  0  0  0  0  0  0  0  0  0
   34.7746   -0.6209    0.0000 O   0  0  0  0  0  0  0  0  0  0  0  0
   36.4620   -2.5964    0.0000 N   0  0  0  0  0  0  0  0  0  0  0  0
   37.6026   -1.6222    0.0000 C   0  0  0  0  0  0  0  0  0  0  0  0
   38.3411   -0.3166    0.0000 C   0  0  0  0  0  0  0  0  0  0  0  0
   39.8411   -0.3034    0.0000 C   0  0  0  0  0  0  0  0  0  0  0  0
   40.5796    1.0022    0.0000 C   0  0  0  0  0  0  0  0  0  0  0  0
   42.0796    1.0154    0.0000 O   0  0  0  0  0  0  0  0  0  0  0  0
   39.8182    2.2946    0.0000 O   0  0  0  0  0  0  0  0  0  0  0  0
   39.0166   -2.1228    0.0000 C   0  0  0  0  0  0  0  0  0  0  0  0
   40.2674   -1.2948    0.0000 O   0  0  0  0  0  0  0  0  0  0  0  0
   39.2900   -3.5977    0.0000 N   0  0  0  0  0  0  0  0  0  0  0  0
   40.7040   -4.0983    0.0000 C   0  0  0  0  0  0  0  0  0  0  0  0
   42.2040   -4.0851    0.0000 C   0  0  0  0  0  0  0  0  0  0  0  0
   42.9425   -2.7795    0.0000 C   0  0  0  0  0  0  0  0  0  0  0  0
   44.4424   -2.7663    0.0000 C   0  0  0  0  0  0  0  0  0  0  0  0
   45.1810   -1.4608    0.0000 N   0  0  0  0  0  0  0  0  0  0  0  0
   45.2038   -4.0587    0.0000 O   0  0  0  0  0  0  0  0  0  0  0  0
   40.9775   -5.5731    0.0000 C   0  0  0  0  0  0  0  0  0  0  0  0
   39.8369   -6.5474    0.0000 O   0  0  0  0  0  0  0  0  0  0  0  0
   42.3199   -6.2424    0.0000 O   0  0  0  0  0  0  0  0  0  0  0  0
  -37.5729  -14.5527    0.0000 H   0  0  0  0  0  0  0  0  0  0  0  0
  -38.7102  -12.2168    0.0000 H   0  0  0  0  0  0  0  0  0  0  0  0
  -35.7061  -13.8421    0.0000 H   0  0  0  0  0  0  0  0  0  0  0  0
  -34.6266  -12.2442    0.0000 H   0  0  0  0  0  0  0  0  0  0  0  0
  -37.5047  -11.0593    0.0000 H   0  0  0  0  0  0  0  0  0  0  0  0
  -36.4252   -9.4614    0.0000 H   0  0  0  0  0  0  0  0  0  0  0  0
  -35.8944   -8.0689    0.0000 H   0  0  0  0  0  0  0  0  0  0  0  0
  -32.7973   -9.5364    0.0000 H   0  0  0  0  0  0  0  0  0  0  0  0
  -34.6756   -5.4989    0.0000 H   0  0  0  0  0  0  0  0  0  0  0  0
  -32.6719   -6.3928    0.0000 H   0  0  0  0  0  0  0  0  0  0  0  0
  -36.4632   -5.8216    0.0000 H   0  0  0  0  0  0  0  0  0  0  0  0
  -31.2481   -9.8357    0.0000 H   0  0  0  0  0  0  0  0  0  0  0  0
  -29.7576   -7.5548    0.0000 H   0  0  0  0  0  0  0  0  0  0  0  0
  -29.0385  -11.9355    0.0000 H   0  0  0  0  0  0  0  0  0  0  0  0
  -27.9590  -10.3376    0.0000 H   0  0  0  0  0  0  0  0  0  0  0  0
  -32.2915  -11.3055    0.0000 H   0  0  0  0  0  0  0  0  0  0  0  0
  -31.3321  -10.4421    0.0000 H   0  0  0  0  0  0  0  0  0  0  0  0
  -29.2268   -6.1622    0.0000 H   0  0  0  0  0  0  0  0  0  0  0  0
  -25.1112   -8.3604    0.0000 H   0  0  0  0  0  0  0  0  0  0  0  0
  -26.2842   -7.9027    0.0000 H   0  0  0  0  0  0  0  0  0  0  0  0
  -23.3866   -8.7259    0.0000 H   0  0  0  0  0  0  0  0  0  0  0  0
  -24.6251   -8.4985    0.0000 H   0  0  0  0  0  0  0  0  0  0  0  0
  -21.6240   -8.7585    0.0000 H   0  0  0  0  0  0  0  0  0  0  0  0
  -22.8831   -8.7695    0.0000 H   0  0  0  0  0  0  0  0  0  0  0  0
  -19.8871   -8.4569    0.0000 H   0  0  0  0  0  0  0  0  0  0  0  0
  -21.1214   -8.7060    0.0000 H   0  0  0  0  0  0  0  0  0  0  0  0
  -18.2387   -7.8320    0.0000 H   0  0  0  0  0  0  0  0  0  0  0  0
  -19.4035   -8.3102    0.0000 H   0  0  0  0  0  0  0  0  0  0  0  0
  -16.6510   -6.7454    0.0000 H   0  0  0  0  0  0  0  0  0  0  0  0
  -17.7915   -7.5965    0.0000 H   0  0  0  0  0  0  0  0  0  0  0  0
  -15.7955   -6.2515    0.0000 H   0  0  0  0  0  0  0  0  0  0  0  0
  -27.6414   -8.6773    0.0000 H   0  0  0  0  0  0  0  0  0  0  0  0
  -25.8810   -9.0065    0.0000 H   0  0  0  0  0  0  0  0  0  0  0  0
  -25.0656   -7.8467    0.0000 H   0  0  0  0  0  0  0  0  0  0  0  0
  -29.8192   -5.1680    0.0000 H   0  0  0  0  0  0  0  0  0  0  0  0
  -30.9397   -2.4963    0.0000 H   0  0  0  0  0  0  0  0  0  0  0  0
  -30.6435   -5.5703    0.0000 H   0  0  0  0  0  0  0  0  0  0  0  0
  -29.1069   -5.0151    0.0000 H   0  0  0  0  0  0  0  0  0  0  0  0
  -31.8233   -2.5277    0.0000 H   0  0  0  0  0  0  0  0  0  0  0  0
  -34.1181   -5.2017    0.0000 H   0  0  0  0  0  0  0  0  0  0  0  0
  -32.7806   -6.7751    0.0000 H   0  0  0  0  0  0  0  0  0  0  0  0
  -31.2410   -5.8729    0.0000 H   0  0  0  0  0  0  0  0  0  0  0  0
  -34.4807   -4.1852    0.0000 H   0  0  0  0  0  0  0  0  0  0  0  0
  -34.2745   -2.4127    0.0000 H   0  0  0  0  0  0  0  0  0  0  0  0
  -32.3600   -2.1821    0.0000 H   0  0  0  0  0  0  0  0  0  0  0  0
  -31.6886   -0.2239    0.0000 H   0  0  0  0  0  0  0  0  0  0  0  0
  -31.1868    2.6294    0.0000 H   0  0  0  0  0  0  0  0  0  0  0  0
  -32.7188    0.0223    0.0000 H   0  0  0  0  0  0  0  0  0  0  0  0
  -31.0066   -0.4804    0.0000 H   0  0  0  0  0  0  0  0  0  0  0  0
  -34.1075    1.1932    0.0000 H   0  0  0  0  0  0  0  0  0  0  0  0
  -33.5805    3.0482    0.0000 H   0  0  0  0  0  0  0  0  0  0  0  0
  -31.9470    3.0807    0.0000 H   0  0  0  0  0  0  0  0  0  0  0  0
  -30.5881    4.9459    0.0000 H   0  0  0  0  0  0  0  0  0  0  0  0
  -28.8009    7.0299    0.0000 H   0  0  0  0  0  0  0  0  0  0  0  0
  -30.3738    7.2219    0.0000 H   0  0  0  0  0  0  0  0  0  0  0  0
  -31.3217    5.7101    0.0000 H   0  0  0  0  0  0  0  0  0  0  0  0
  -30.1531    4.3616    0.0000 H   0  0  0  0  0  0  0  0  0  0  0  0
  -26.8674    8.7002    0.0000 H   0  0  0  0  0  0  0  0  0  0  0  0
  -24.0634    9.4291    0.0000 H   0  0  0  0  0  0  0  0  0  0  0  0
  -27.0714    9.7396    0.0000 H   0  0  0  0  0  0  0  0  0  0  0  0
  -26.8174    7.9734    0.0000 H   0  0  0  0  0  0  0  0  0  0  0  0
  -24.6769   11.7805    0.0000 H   0  0  0  0  0  0  0  0  0  0  0  0
  -23.9687   10.3081    0.0000 H   0  0  0  0  0  0  0  0  0  0  0  0
  -21.7076    9.8469    0.0000 H   0  0  0  0  0  0  0  0  0  0  0  0
  -19.0695    9.0869    0.0000 H   0  0  0  0  0  0  0  0  0  0  0  0
  -19.5482   10.5974    0.0000 H   0  0  0  0  0  0  0  0  0  0  0  0
  -21.3172   10.8316    0.0000 H   0  0  0  0  0  0  0  0  0  0  0  0
  -22.0584    9.2084    0.0000 H   0  0  0  0  0  0  0  0  0  0  0  0
  -16.7469    8.0219    0.0000 H   0  0  0  0  0  0  0  0  0  0  0  0
  -14.9386    5.9563    0.0000 H   0  0  0  0  0  0  0  0  0  0  0  0
  -15.8861    8.6393    0.0000 H   0  0  0  0  0  0  0  0  0  0  0  0
  -17.3873    7.6745    0.0000 H   0  0  0  0  0  0  0  0  0  0  0  0
  -14.7218   10.1516    0.0000 H   0  0  0  0  0  0  0  0  0  0  0  0
  -11.4698    9.8802    0.0000 H   0  0  0  0  0  0  0  0  0  0  0  0
  -10.7229    6.7035    0.0000 H   0  0  0  0  0  0  0  0  0  0  0  0
  -13.5604    3.8048    0.0000 H   0  0  0  0  0  0  0  0  0  0  0  0
  -13.0658    0.7573    0.0000 H   0  0  0  0  0  0  0  0  0  0  0  0
  -13.2078   -0.6587    0.0000 H   0  0  0  0  0  0  0  0  0  0  0  0
  -13.1561   -1.1831    0.0000 H   0  0  0  0  0  0  0  0  0  0  0  0
  -13.4683   -2.2280    0.0000 H   0  0  0  0  0  0  0  0  0  0  0  0
  -13.6294   -2.7070    0.0000 H   0  0  0  0  0  0  0  0  0  0  0  0
  -14.2874   -3.9688    0.0000 H   0  0  0  0  0  0  0  0  0  0  0  0
  -14.6384   -4.8922    0.0000 H   0  0  0  0  0  0  0  0  0  0  0  0
  -12.5779   -0.3220    0.0000 H   0  0  0  0  0  0  0  0  0  0  0  0
  -11.6998    0.8342    0.0000 H   0  0  0  0  0  0  0  0  0  0  0  0
  -12.5116    2.4443    0.0000 H   0  0  0  0  0  0  0  0  0  0  0  0
  -11.5295    0.7217    0.0000 H   0  0  0  0  0  0  0  0  0  0  0  0
  -11.9977    4.0806    0.0000 H   0  0  0  0  0  0  0  0  0  0  0  0
  -10.0363    5.9307    0.0000 H   0  0  0  0  0  0  0  0  0  0  0  0
  -11.5156    4.9327    0.0000 H   0  0  0  0  0  0  0  0  0  0  0  0
   -8.1255    3.0229    0.0000 H   0  0  0  0  0  0  0  0  0  0  0  0
   -6.4109    6.1266    0.0000 H   0  0  0  0  0  0  0  0  0  0  0  0
   -7.6156    7.2303    0.0000 H   0  0  0  0  0  0  0  0  0  0  0  0
   -9.2055    6.4201    0.0000 H   0  0  0  0  0  0  0  0  0  0  0  0
   -6.5655    2.5798    0.0000 H   0  0  0  0  0  0  0  0  0  0  0  0
   -5.7921    4.4946    0.0000 H   0  0  0  0  0  0  0  0  0  0  0  0
   -6.7617    5.3829    0.0000 H   0  0  0  0  0  0  0  0  0  0  0  0
   -8.1941    5.0973    0.0000 H   0  0  0  0  0  0  0  0  0  0  0  0
   -7.6102    1.7939    0.0000 H   0  0  0  0  0  0  0  0  0  0  0  0
   -4.3717    1.4762    0.0000 H   0  0  0  0  0  0  0  0  0  0  0  0
   -4.5567    3.0996    0.0000 H   0  0  0  0  0  0  0  0  0  0  0  0
   -4.8041   -0.2880    0.0000 H   0  0  0  0  0  0  0  0  0  0  0  0
   -3.8659    2.1426    0.0000 H   0  0  0  0  0  0  0  0  0  0  0  0
   -4.3340    5.5014    0.0000 H   0  0  0  0  0  0  0  0  0  0  0  0
   -3.8520    6.3536    0.0000 H   0  0  0  0  0  0  0  0  0  0  0  0
   -3.3480    8.2864    0.0000 H   0  0  0  0  0  0  0  0  0  0  0  0
   -0.1995    7.1717    0.0000 H   0  0  0  0  0  0  0  0  0  0  0  0
    0.4759    5.3655    0.0000 H   0  0  0  0  0  0  0  0  0  0  0  0
   -0.4618    4.4437    0.0000 H   0  0  0  0  0  0  0  0  0  0  0  0
   -0.7136    6.5182    0.0000 H   0  0  0  0  0  0  0  0  0  0  0  0
   -0.1002    3.3145    0.0000 H   0  0  0  0  0  0  0  0  0  0  0  0
    3.3635    3.0657    0.0000 H   0  0  0  0  0  0  0  0  0  0  0  0
    2.9820    4.6544    0.0000 H   0  0  0  0  0  0  0  0  0  0  0  0
    0.2375    2.4114    0.0000 H   0  0  0  0  0  0  0  0  0  0  0  0
    2.7942   -0.3658    0.0000 H   0  0  0  0  0  0  0  0  0  0  0  0
    4.2735    0.6322    0.0000 H   0  0  0  0  0  0  0  0  0  0  0  0
    3.7517    2.3386    0.0000 H   0  0  0  0  0  0  0  0  0  0  0  0
    1.5616   -0.5943    0.0000 H   0  0  0  0  0  0  0  0  0  0  0  0
   -0.1771   -0.1929    0.0000 H   0  0  0  0  0  0  0  0  0  0  0  0
   -0.1940    1.7353    0.0000 H   0  0  0  0  0  0  0  0  0  0  0  0
    3.7977    3.5634    0.0000 H   0  0  0  0  0  0  0  0  0  0  0  0
    3.3296    6.9223    0.0000 H   0  0  0  0  0  0  0  0  0  0  0  0
    5.2909    8.7724    0.0000 H   0  0  0  0  0  0  0  0  0  0  0  0
    3.8116    7.7744    0.0000 H   0  0  0  0  0  0  0  0  0  0  0  0
    7.2018    5.8646    0.0000 H   0  0  0  0  0  0  0  0  0  0  0  0
    8.9163    8.9683    0.0000 H   0  0  0  0  0  0  0  0  0  0  0  0
    7.7116   10.0720    0.0000 H   0  0  0  0  0  0  0  0  0  0  0  0
    6.1217    9.2618    0.0000 H   0  0  0  0  0  0  0  0  0  0  0  0
    8.7618    5.4215    0.0000 H   0  0  0  0  0  0  0  0  0  0  0  0
    9.5351    7.3363    0.0000 H   0  0  0  0  0  0  0  0  0  0  0  0
    8.5655    8.2246    0.0000 H   0  0  0  0  0  0  0  0  0  0  0  0
    7.1332    7.9390    0.0000 H   0  0  0  0  0  0  0  0  0  0  0  0
    7.5634    4.7354    0.0000 H   0  0  0  0  0  0  0  0  0  0  0  0
   10.9555    4.3179    0.0000 H   0  0  0  0  0  0  0  0  0  0  0  0
   10.7706    5.9413    0.0000 H   0  0  0  0  0  0  0  0  0  0  0  0
    8.6271    2.2021    0.0000 H   0  0  0  0  0  0  0  0  0  0  0  0
    7.9012    3.8323    0.0000 H   0  0  0  0  0  0  0  0  0  0  0  0
   11.4613    4.9843    0.0000 H   0  0  0  0  0  0  0  0  0  0  0  0
   10.9932    8.3431    0.0000 H   0  0  0  0  0  0  0  0  0  0  0  0
   14.0298    9.6689    0.0000 H   0  0  0  0  0  0  0  0  0  0  0  0
   14.1544    7.8888    0.0000 H   0  0  0  0  0  0  0  0  0  0  0  0
   12.1051   12.5850    0.0000 H   0  0  0  0  0  0  0  0  0  0  0  0
   14.3664   11.3058    0.0000 H   0  0  0  0  0  0  0  0  0  0  0  0
   12.6976    4.4393    0.0000 H   0  0  0  0  0  0  0  0  0  0  0  0
   15.4996    6.3924    0.0000 H   0  0  0  0  0  0  0  0  0  0  0  0
   17.9261    3.9925    0.0000 H   0  0  0  0  0  0  0  0  0  0  0  0
   18.1571    5.4515    0.0000 H   0  0  0  0  0  0  0  0  0  0  0  0
   16.4786    6.4010    0.0000 H   0  0  0  0  0  0  0  0  0  0  0  0
   18.1904    3.7654    0.0000 H   0  0  0  0  0  0  0  0  0  0  0  0
   15.7131    1.4494    0.0000 H   0  0  0  0  0  0  0  0  0  0  0  0
   15.6231    0.6524    0.0000 H   0  0  0  0  0  0  0  0  0  0  0  0
   18.0577   -2.4695    0.0000 H   0  0  0  0  0  0  0  0  0  0  0  0
   19.5370   -1.4715    0.0000 H   0  0  0  0  0  0  0  0  0  0  0  0
   19.3882   -0.1650    0.0000 H   0  0  0  0  0  0  0  0  0  0  0  0
   15.9795   -2.8019    0.0000 H   0  0  0  0  0  0  0  0  0  0  0  0
   17.4778   -2.1503    0.0000 H   0  0  0  0  0  0  0  0  0  0  0  0
   13.9885   -2.6412    0.0000 H   0  0  0  0  0  0  0  0  0  0  0  0
   13.3130   -0.8350    0.0000 H   0  0  0  0  0  0  0  0  0  0  0  0
   14.7923    0.1630    0.0000 H   0  0  0  0  0  0  0  0  0  0  0  0
   18.0295   -1.7342    0.0000 H   0  0  0  0  0  0  0  0  0  0  0  0
   20.3797    0.4851    0.0000 H   0  0  0  0  0  0  0  0  0  0  0  0
   23.2789   -1.3249    0.0000 H   0  0  0  0  0  0  0  0  0  0  0  0
   21.9322   -2.4957    0.0000 H   0  0  0  0  0  0  0  0  0  0  0  0
   22.8004    1.7847    0.0000 H   0  0  0  0  0  0  0  0  0  0  0  0
   21.2105    0.9745    0.0000 H   0  0  0  0  0  0  0  0  0  0  0  0
   26.2914    1.6372    0.0000 H   0  0  0  0  0  0  0  0  0  0  0  0
   24.0301    2.9164    0.0000 H   0  0  0  0  0  0  0  0  0  0  0  0
   23.2527   -2.1611    0.0000 H   0  0  0  0  0  0  0  0  0  0  0  0
   20.7754   -4.4771    0.0000 H   0  0  0  0  0  0  0  0  0  0  0  0
   22.3013   -7.4182    0.0000 H   0  0  0  0  0  0  0  0  0  0  0  0
   23.5182   -6.1131    0.0000 H   0  0  0  0  0  0  0  0  0  0  0  0
   24.5564   -2.5154    0.0000 H   0  0  0  0  0  0  0  0  0  0  0  0
   25.5053   -5.7965    0.0000 H   0  0  0  0  0  0  0  0  0  0  0  0
   26.2608   -6.4192    0.0000 H   0  0  0  0  0  0  0  0  0  0  0  0
   27.4242   -8.0429    0.0000 H   0  0  0  0  0  0  0  0  0  0  0  0
   29.9638   -5.8736    0.0000 H   0  0  0  0  0  0  0  0  0  0  0  0
   29.9469   -3.9453    0.0000 H   0  0  0  0  0  0  0  0  0  0  0  0
   28.7410   -3.4210    0.0000 H   0  0  0  0  0  0  0  0  0  0  0  0
   29.2496   -5.4478    0.0000 H   0  0  0  0  0  0  0  0  0  0  0  0
   28.7815   -2.0890    0.0000 H   0  0  0  0  0  0  0  0  0  0  0  0
   30.9250   -0.2580    0.0000 H   0  0  0  0  0  0  0  0  0  0  0  0
   29.2635   -1.2368    0.0000 H   0  0  0  0  0  0  0  0  0  0  0  0
   32.9160   -0.4187    0.0000 H   0  0  0  0  0  0  0  0  0  0  0  0
   33.5914   -2.2249    0.0000 H   0  0  0  0  0  0  0  0  0  0  0  0
   32.6536   -3.1467    0.0000 H   0  0  0  0  0  0  0  0  0  0  0  0
   32.4019   -1.0722    0.0000 H   0  0  0  0  0  0  0  0  0  0  0  0
   33.0153   -4.2758    0.0000 H   0  0  0  0  0  0  0  0  0  0  0  0
   36.4790   -4.5247    0.0000 H   0  0  0  0  0  0  0  0  0  0  0  0
   36.0975   -2.9360    0.0000 H   0  0  0  0  0  0  0  0  0  0  0  0
   34.0789   -6.8091    0.0000 H   0  0  0  0  0  0  0  0  0  0  0  0
   33.3530   -5.1790    0.0000 H   0  0  0  0  0  0  0  0  0  0  0  0
   37.3890   -6.9582    0.0000 H   0  0  0  0  0  0  0  0  0  0  0  0
   36.8672   -5.2517    0.0000 H   0  0  0  0  0  0  0  0  0  0  0  0
   34.3225   -8.4624    0.0000 H   0  0  0  0  0  0  0  0  0  0  0  0
   37.7950  -11.3245    0.0000 H   0  0  0  0  0  0  0  0  0  0  0  0
   35.2326  -10.8959    0.0000 H   0  0  0  0  0  0  0  0  0  0  0  0
   39.4475   -9.3197    0.0000 H   0  0  0  0  0  0  0  0  0  0  0  0
   38.5375   -6.8862    0.0000 H   0  0  0  0  0  0  0  0  0  0  0  0
   36.9132   -4.0269    0.0000 H   0  0  0  0  0  0  0  0  0  0  0  0
   36.4451   -0.6681    0.0000 H   0  0  0  0  0  0  0  0  0  0  0  0
   38.5886    1.1629    0.0000 H   0  0  0  0  0  0  0  0  0  0  0  0
   36.9271    0.1840    0.0000 H   0  0  0  0  0  0  0  0  0  0  0  0
   41.2551   -0.8040    0.0000 H   0  0  0  0  0  0  0  0  0  0  0  0
   40.1403   -1.7733    0.0000 H   0  0  0  0  0  0  0  0  0  0  0  0
   38.1495   -4.5719    0.0000 H   0  0  0  0  0  0  0  0  0  0  0  0
   40.7693   -2.5997    0.0000 H   0  0  0  0  0  0  0  0  0  0  0  0
   43.6179   -4.5857    0.0000 H   0  0  0  0  0  0  0  0  0  0  0  0
   42.1387   -5.5837    0.0000 H   0  0  0  0  0  0  0  0  0  0  0  0
   43.1900   -1.3001    0.0000 H   0  0  0  0  0  0  0  0  0  0  0  0
   41.6001   -2.1103    0.0000 H   0  0  0  0  0  0  0  0  0  0  0  0
   46.6809   -1.4476    0.0000 H   0  0  0  0  0  0  0  0  0  0  0  0
   44.4196   -0.1684    0.0000 H   0  0  0  0  0  0  0  0  0  0  0  0
  1  2  1  0
  2  3  1  0
  3  4  1  0
  4  5  2  0
  4  6  1  0
  6  7  1  0
  7  8  1  0
  8  9  1  0
  7 10  1  0
 10 11  2  0
 10 12  1  0
 12 13  1  0
 13 14  1  0
 14 15  1  0
 15 16  1  0
 16 17  2  0
 16 18  1  0
 13 19  1  0
 19 20  2  0
 19 21  1  0
 22 21  1  1
 22 23  1  0
 23 24  1  0
 24 25  1  0
 25 26  1  0
 26 27  1  0
 27 28  1  0
 28 29  1  0
 22 30  1  0
 22 31  1  0
 31 32  2  0
 31 33  1  0
 33 34  1  0
 34 35  1  0
 35 36  1  0
 36 37  1  0
 36 38  1  0
 34 39  1  0
 39 40  2  0
 39 41  1  0
 41 42  1  0
 42 43  1  0
 43 44  1  0
 42 45  1  0
 45 46  2  0
 45 47  1  0
 47 48  1  0
 48 49  1  0
 48 50  1  0
 50 51  2  0
 50 52  1  0
 52 53  1  0
 53 54  1  0
 54 55  1  0
 55 56  1  0
 56 57  2  0
 56 58  1  0
 53 59  1  0
 59 60  2  0
 59 61  1  0
 61 62  1  0
 62 63  1  0
 62 64  1  0
 64 65  2  0
 64 66  1  0
 66 67  1  0
 67 68  1  0
 68 69  1  0
 69 70  2  0
 70 71  1  0
 71 72  1  0
 72 73  2  0
 67 74  1  0
 74 75  2  0
 74 76  1  0
 76 77  1  0
 77 78  1  0
 78 79  1  0
 79 80  1  0
 80 81  1  0
 77 82  1  0
 77 83  1  6
 83 84  2  0
 83 85  1  0
 85 86  1  0
 86 87  1  0
 87 88  1  0
 88 89  1  0
 88 90  1  0
 86 91  1  0
 91 92  2  0
 91 93  1  0
 93 94  1  0
 94 95  1  0
 95 96  1  0
 94 97  1  0
 97 98  2  0
 97 99  1  0
 99100  1  0
100101  1  0
101102  1  0
101103  1  0
100104  1  0
104105  2  0
104106  1  0
106107  1  0
107108  1  0
108109  1  0
109110  1  0
109111  1  0
107112  1  0
112113  2  0
112114  1  0
114115  1  0
115116  1  0
116117  1  0
117118  1  0
117119  1  0
115120  1  0
120121  2  0
120122  1  0
122123  1  0
123124  1  0
124125  1  0
125126  1  0
126127  2  0
126128  1  0
123129  1  0
129130  2  0
129131  1  0
131132  1  0
132133  1  0
133134  1  0
134135  1  0
134136  2  0
132137  1  0
137138  2  0
137139  1  0
139140  1  0
140141  1  0
140142  1  0
142143  2  0
142144  1  0
144145  1  0
145146  1  0
146147  1  0
146148  1  0
148149  1  0
145150  1  0
150151  2  0
150152  1  0
152153  1  0
153154  1  0
154155  1  0
155156  1  0
156157  1  0
156158  2  0
153159  1  0
159160  2  0
159161  1  0
161162  1  0
162163  1  0
163164  1  0
164165  2  0
164166  1  0
162167  1  0
167168  2  0
167169  1  0
169170  1  0
170171  1  0
171172  1  0
171173  1  0
170174  1  0
174175  2  0
174176  1  0
176177  1  0
177178  1  0
178179  1  0
177180  1  0
180181  2  0
180182  1  0
182183  1  0
183184  1  0
184185  1  0
185186  1  0
186187  1  0
187188  1  0
188189  2  3
188190  1  0
183191  1  0
191192  2  0
191193  1  0
193194  1  0
194195  1  0
195196  1  0
196197  1  0
197198  2  0
197199  1  0
194200  1  0
200201  2  0
200202  1  0
202203  1  0
203204  1  0
204205  1  0
205206  1  0
206207  1  0
206208  2  0
203209  1  0
209210  2  0
209211  1  0
 73 69  1  0
 29 81  2  0
  1212  1  0
  1213  1  0
  2214  1  0
  2215  1  0
  3216  1  0
  3217  1  0
  6218  1  0
  7219  1  1
  8220  1  0
  8221  1  0
  9222  1  0
 12223  1  0
 13224  1  6
 14225  1  0
 14226  1  0
 15227  1  0
 15228  1  0
 21229  1  0
 23230  1  0
 23231  1  0
 24232  1  0
 24233  1  0
 25234  1  0
 25235  1  0
 26236  1  0
 26237  1  0
 27238  1  0
 27239  1  0
 28240  1  0
 28241  1  0
 29242  1  0
 30243  1  0
 30244  1  0
 30245  1  0
 33246  1  0
 34247  1  1
 35248  1  0
 35249  1  0
 36250  1  0
 37251  1  0
 37252  1  0
 37253  1  0
 38254  1  0
 38255  1  0
 38256  1  0
 41257  1  0
 42258  1  1
 43259  1  0
 43260  1  0
 44261  1  0
 44262  1  0
 44263  1  0
 47264  1  0
 48265  1  1
 49266  1  0
 49267  1  0
 49268  1  0
 52269  1  0
 53270  1  1
 54271  1  0
 54272  1  0
 55273  1  0
 55274  1  0
 61275  1  0
 62276  1  1
 63277  1  0
 63278  1  0
 63279  1  0
 66280  1  0
 67281  1  1
 68282  1  0
 68283  1  0
 70284  1  0
 71285  1  0
 72286  1  0
 76287  1  0
 78288  1  0
 78289  1  0
 79290  1  0
 79291  1  0
 80292  1  0
 80293  1  0
 81294  1  0
 82295  1  0
 82296  1  0
 82297  1  0
 85298  1  0
 86299  1  1
 87300  1  0
 87301  1  0
 88302  1  0
 89303  1  0
 89304  1  0
 89305  1  0
 90306  1  0
 90307  1  0
 90308  1  0
 93309  1  0
 94310  1  6
 95311  1  0
 95312  1  0
 96313  1  0
 99314  1  0
100315  1  1
101316  1  1
102317  1  0
103318  1  0
103319  1  0
103320  1  0
106321  1  0
107322  1  6
108323  1  0
108324  1  0
109325  1  0
110326  1  0
110327  1  0
110328  1  0
111329  1  0
111330  1  0
111331  1  0
114332  1  0
115333  1  1
116334  1  0
116335  1  0
117336  1  0
118337  1  0
118338  1  0
118339  1  0
119340  1  0
119341  1  0
119342  1  0
122343  1  0
123344  1  6
124345  1  0
124346  1  0
125347  1  0
125348  1  0
131349  1  0
132350  1  1
133351  1  0
133352  1  0
135353  1  0
135354  1  0
139355  1  0
140356  1  1
141357  1  0
141358  1  0
141359  1  0
144360  1  0
145361  1  6
146362  1  6
147363  1  0
147364  1  0
147365  1  0
148366  1  0
148367  1  0
149368  1  0
149369  1  0
149370  1  0
152371  1  0
153372  1  1
154373  1  0
154374  1  0
155375  1  0
155376  1  0
157377  1  0
157378  1  0
161379  1  0
162380  1  6
163381  1  0
163382  1  0
169383  1  0
170384  1  6
171385  1  6
172386  1  0
173387  1  0
173388  1  0
173389  1  0
176390  1  0
177391  1  1
178392  1  0
178393  1  0
179394  1  0
179395  1  0
179396  1  0
182397  1  0
183398  1  6
184399  1  0
184400  1  0
185401  1  0
185402  1  0
186403  1  0
186404  1  0
187405  1  0
189406  1  0
189407  1  0
190408  1  0
190409  1  0
193410  1  0
194411  1  1
195412  1  0
195413  1  0
196414  1  0
196415  1  0
202416  1  0
203417  1  1
204418  1  0
204419  1  0
205420  1  0
205421  1  0
207422  1  0
207423  1  0
M  CHG  7  18  -1  58  -1 128  -1 166  -1 189   1 199  -1 211  -1
M  END
