
     RDKit          2D

291298  0  0  0  0  0  0  0  0999 V2000
  -12.6637   -8.1873    0.0000 C   0  0  0  0  0  0  0  0  0  0  0  0
  -11.3954   -8.9882    0.0000 N   0  0  0  0  0  0  0  0  0  0  0  0
  -11.4548  -10.4870    0.0000 C   0  0  0  0  0  0  0  0  0  0  0  0
  -12.7826  -11.1850    0.0000 C   0  0  0  0  0  0  0  0  0  0  0  0
  -12.8420  -12.6838    0.0000 C   0  0  0  0  0  0  0  0  0  0  0  0
  -11.5737  -13.4847    0.0000 C   0  0  0  0  0  0  0  0  0  0  0  0
  -10.2460  -12.7867    0.0000 C   0  0  0  0  0  0  0  0  0  0  0  0
  -10.1865  -11.2879    0.0000 C   0  0  0  0  0  0  0  0  0  0  0  0
   -9.1719  -13.8338    0.0000 C   0  0  0  0  0  0  0  0  0  0  0  0
   -9.8358  -15.1789    0.0000 O   0  0  0  0  0  0  0  0  0  0  0  0
  -11.3202  -14.9631    0.0000 C   0  0  0  0  0  0  0  0  0  0  0  0
  -12.3673  -16.0372    0.0000 O   0  0  0  0  0  0  0  0  0  0  0  0
   -8.2132  -14.9874    0.0000 C   0  0  0  0  0  0  0  0  0  0  0  0
   -6.7347  -14.7339    0.0000 C   0  0  0  0  0  0  0  0  0  0  0  0
   -5.7760  -15.8876    0.0000 C   0  0  0  0  0  0  0  0  0  0  0  0
   -6.2957  -17.2947    0.0000 C   0  0  0  0  0  0  0  0  0  0  0  0
   -7.7741  -17.5481    0.0000 C   0  0  0  0  0  0  0  0  0  0  0  0
   -8.7329  -16.3945    0.0000 C   0  0  0  0  0  0  0  0  0  0  0  0
   -5.3370  -18.4483    0.0000 O   0  0  0  0  0  0  0  0  0  0  0  0
   -6.2150  -13.3269    0.0000 O   0  0  0  0  0  0  0  0  0  0  0  0
   -7.1738  -12.1732    0.0000 C   0  0  0  0  0  0  0  0  0  0  0  0
   -8.6522  -12.4267    0.0000 C   0  0  0  0  0  0  0  0  0  0  0  0
   -8.9210  -11.1548    0.0000 C   0  0  0  0  0  0  0  0  0  0  0  0
   -8.6438  -10.4044    0.0000 C   0  0  0  0  0  0  0  0  0  0  0  0
   -7.8553  -10.2692    0.0000 C   0  0  0  0  0  0  0  0  0  0  0  0
   -7.3440  -10.8844    0.0000 C   0  0  0  0  0  0  0  0  0  0  0  0
   -7.0931   -8.2054    0.0000 O   0  0  0  0  0  0  0  0  0  0  0  0
  -13.9914   -8.8852    0.0000 S   0  0  0  0  0  0  0  0  0  0  0  0
  -12.6042   -6.6885    0.0000 N   0  0  0  0  0  0  0  0  0  0  0  0
  -13.8725   -5.8876    0.0000 C   0  0  0  0  0  0  0  0  0  0  0  0
  -13.8131   -4.3888    0.0000 C   0  0  0  0  0  0  0  0  0  0  0  0
  -15.0814   -3.5879    0.0000 C   0  0  0  0  0  0  0  0  0  0  0  0
  -16.4091   -4.2858    0.0000 O   0  0  0  0  0  0  0  0  0  0  0  0
  -15.0220   -2.0891    0.0000 N   0  0  0  0  0  0  0  0  0  0  0  0
  -16.2903   -1.2882    0.0000 C   0  0  0  0  0  0  0  0  0  0  0  0
  -17.7560   -0.9694    0.0000 C   0  0  0  0  0  0  0  0  0  0  0  0
  -18.2128    0.4594    0.0000 C   0  0  0  0  0  0  0  0  0  0  0  0
  -19.6785    0.7782    0.0000 C   0  0  0  0  0  0  0  0  0  0  0  0
  -20.1868    1.8818    0.0000 O   0  0  0  0  0  0  0  0  0  0  0  0
  -20.6874   -0.3318    0.0000 O   0  0  0  0  0  0  0  0  0  0  0  0
  -16.2308    0.2106    0.0000 C   0  0  0  0  0  0  0  0  0  0  0  0
  -14.9031    0.9086    0.0000 O   0  0  0  0  0  0  0  0  0  0  0  0
  -17.4991    1.0115    0.0000 N   0  0  0  0  0  0  0  0  0  0  0  0
  -17.4397    2.5104    0.0000 C   0  0  0  0  0  0  0  0  0  0  0  0
  -16.8712    3.8985    0.0000 C   0  0  0  0  0  0  0  0  0  0  0  0
  -15.3848    4.1002    0.0000 C   0  0  0  0  0  0  0  0  0  0  0  0
  -14.4973    5.3095    0.0000 N   0  0  0  0  0  0  0  0  0  0  0  0
  -14.4669    2.9138    0.0000 O   0  0  0  0  0  0  0  0  0  0  0  0
  -18.7080    3.3112    0.0000 C   0  0  0  0  0  0  0  0  0  0  0  0
  -19.8443    2.8812    0.0000 O   0  0  0  0  0  0  0  0  0  0  0  0
  -18.6485    4.8101    0.0000 N   0  0  0  0  0  0  0  0  0  0  0  0
  -19.8262    5.7391    0.0000 C   0  0  0  0  0  0  0  0  0  0  0  0
  -19.3065    7.1462    0.0000 C   0  0  0  0  0  0  0  0  0  0  0  0
  -17.8076    7.0868    0.0000 C   0  0  0  0  0  0  0  0  0  0  0  0
  -17.4010    5.6430    0.0000 C   0  0  0  0  0  0  0  0  0  0  0  0
  -16.0076    6.1983    0.0000 C   0  0  0  0  0  0  0  0  0  0  0  0
  -15.6125    7.6453    0.0000 O   0  0  0  0  0  0  0  0  0  0  0  0
  -14.8300    5.2692    0.0000 N   0  0  0  0  0  0  0  0  0  0  0  0
  -13.4365    5.8245    0.0000 C   0  0  0  0  0  0  0  0  0  0  0  0
  -12.3171    6.8229    0.0000 C   0  0  0  0  0  0  0  0  0  0  0  0
  -10.8927    6.3527    0.0000 C   0  0  0  0  0  0  0  0  0  0  0  0
   -9.7733    7.3511    0.0000 C   0  0  0  0  0  0  0  0  0  0  0  0
   -8.3022    7.0579    0.0000 O   0  0  0  0  0  0  0  0  0  0  0  0
  -10.0782    8.8198    0.0000 O   0  0  0  0  0  0  0  0  0  0  0  0
  -12.2589    4.8955    0.0000 C   0  0  0  0  0  0  0  0  0  0  0  0
  -12.4747    3.4111    0.0000 O   0  0  0  0  0  0  0  0  0  0  0  0
  -10.8655    5.4508    0.0000 N   0  0  0  0  0  0  0  0  0  0  0  0
   -9.6879    4.5217    0.0000 C   0  0  0  0  0  0  0  0  0  0  0  0
   -8.8990    3.2459    0.0000 C   0  0  0  0  0  0  0  0  0  0  0  0
   -9.6095    1.9248    0.0000 O   0  0  0  0  0  0  0  0  0  0  0  0
   -8.2944    5.0770    0.0000 C   0  0  0  0  0  0  0  0  0  0  0  0
   -7.8993    6.5241    0.0000 O   0  0  0  0  0  0  0  0  0  0  0  0
   -7.1168    4.1480    0.0000 N   0  0  0  0  0  0  0  0  0  0  0  0
   -5.7234    4.7033    0.0000 C   0  0  0  0  0  0  0  0  0  0  0  0
   -4.6039    5.7017    0.0000 C   0  0  0  0  0  0  0  0  0  0  0  0
   -3.1329    5.4086    0.0000 C   0  0  0  0  0  0  0  0  0  0  0  0
   -3.8935    7.0228    0.0000 C   0  0  0  0  0  0  0  0  0  0  0  0
   -4.6823    8.2986    0.0000 C   0  0  0  0  0  0  0  0  0  0  0  0
   -4.5458    3.7742    0.0000 C   0  0  0  0  0  0  0  0  0  0  0  0
   -4.7615    2.2898    0.0000 O   0  0  0  0  0  0  0  0  0  0  0  0
   -3.1523    4.3295    0.0000 N   0  0  0  0  0  0  0  0  0  0  0  0
   -1.9747    3.4005    0.0000 C   0  0  0  0  0  0  0  0  0  0  0  0
   -1.1858    2.1246    0.0000 C   0  0  0  0  0  0  0  0  0  0  0  0
   -1.8963    0.8036    0.0000 C   0  0  0  0  0  0  0  0  0  0  0  0
   -1.1075   -0.4723    0.0000 C   0  0  0  0  0  0  0  0  0  0  0  0
   -3.0158   -0.1948    0.0000 C   0  0  0  0  0  0  0  0  0  0  0  0
   -0.5813    3.9558    0.0000 C   0  0  0  0  0  0  0  0  0  0  0  0
   -0.3655    5.4402    0.0000 O   0  0  0  0  0  0  0  0  0  0  0  0
    0.5964    3.0267    0.0000 N   0  0  0  0  0  0  0  0  0  0  0  0
    1.9898    3.5820    0.0000 C   0  0  0  0  0  0  0  0  0  0  0  0
    3.1092    4.5804    0.0000 C   0  0  0  0  0  0  0  0  0  0  0  0
    4.5336    4.1102    0.0000 C   0  0  0  0  0  0  0  0  0  0  0  0
    5.5230    5.2376    0.0000 O   0  0  0  0  0  0  0  0  0  0  0  0
    5.1848    2.7589    0.0000 O   0  0  0  0  0  0  0  0  0  0  0  0
    3.1674    2.6530    0.0000 C   0  0  0  0  0  0  0  0  0  0  0  0
    2.5988    1.2649    0.0000 O   0  0  0  0  0  0  0  0  0  0  0  0
    4.5608    3.2083    0.0000 N   0  0  0  0  0  0  0  0  0  0  0  0
    5.7385    2.2792    0.0000 C   0  0  0  0  0  0  0  0  0  0  0  0
    5.8211    0.7815    0.0000 C   0  0  0  0  0  0  0  0  0  0  0  0
    6.3415   -0.6253    0.0000 C   0  0  0  0  0  0  0  0  0  0  0  0
    7.2535   -1.8163    0.0000 C   0  0  0  0  0  0  0  0  0  0  0  0
    8.4759   -2.6855    0.0000 C   0  0  0  0  0  0  0  0  0  0  0  0
    4.4073    1.5879    0.0000 C   0  0  0  0  0  0  0  0  0  0  0  0
    6.1010    3.7347    0.0000 C   0  0  0  0  0  0  0  0  0  0  0  0
    5.0140    4.7684    0.0000 O   0  0  0  0  0  0  0  0  0  0  0  0
    6.8764    5.0188    0.0000 N   0  0  0  0  0  0  0  0  0  0  0  0
    7.9959    6.0172    0.0000 C   0  0  0  0  0  0  0  0  0  0  0  0
    7.9880    7.5172    0.0000 C   0  0  0  0  0  0  0  0  0  0  0  0
    6.6850    8.2603    0.0000 C   0  0  0  0  0  0  0  0  0  0  0  0
    5.3179    7.6431    0.0000 C   0  0  0  0  0  0  0  0  0  0  0  0
    4.3084    8.7525    0.0000 N   0  0  0  0  0  0  0  0  0  0  0  0
    5.0516   10.0554    0.0000 C   0  0  0  0  0  0  0  0  0  0  0  0
    6.5204    9.7513    0.0000 N   0  0  0  0  0  0  0  0  0  0  0  0
    9.3599    6.6413    0.0000 C   0  0  0  0  0  0  0  0  0  0  0  0
    8.9460    8.0830    0.0000 O   0  0  0  0  0  0  0  0  0  0  0  0
   10.8472    6.8356    0.0000 N   0  0  0  0  0  0  0  0  0  0  0  0
   12.3258    6.5829    0.0000 C   0  0  0  0  0  0  0  0  0  0  0  0
   13.4936    7.5242    0.0000 C   0  0  0  0  0  0  0  0  0  0  0  0
   13.2623    9.0063    0.0000 C   0  0  0  0  0  0  0  0  0  0  0  0
   13.6642    5.9055    0.0000 C   0  0  0  0  0  0  0  0  0  0  0  0
   14.5334    7.1280    0.0000 O   0  0  0  0  0  0  0  0  0  0  0  0
   14.7434    4.8638    0.0000 N   0  0  0  0  0  0  0  0  0  0  0  0
   15.4677    3.5503    0.0000 C   0  0  0  0  0  0  0  0  0  0  0  0
   16.9318    3.2242    0.0000 C   0  0  0  0  0  0  0  0  0  0  0  0
   17.9463    4.3291    0.0000 C   0  0  0  0  0  0  0  0  0  0  0  0
   19.4104    4.0030    0.0000 C   0  0  0  0  0  0  0  0  0  0  0  0
   20.4249    5.1079    0.0000 N   0  0  0  0  0  0  0  0  0  0  0  0
   19.8601    2.5719    0.0000 O   0  0  0  0  0  0  0  0  0  0  0  0
   15.7726    2.0816    0.0000 C   0  0  0  0  0  0  0  0  0  0  0  0
   17.2704    2.1642    0.0000 O   0  0  0  0  0  0  0  0  0  0  0  0
   15.6311    0.5883    0.0000 N   0  0  0  0  0  0  0  0  0  0  0  0
   15.0557   -0.7970    0.0000 C   0  0  0  0  0  0  0  0  0  0  0  0
   14.0976   -1.9511    0.0000 C   0  0  0  0  0  0  0  0  0  0  0  0
   12.8418   -2.7715    0.0000 C   0  0  0  0  0  0  0  0  0  0  0  0
   11.4000   -3.1853    0.0000 C   0  0  0  0  0  0  0  0  0  0  0  0
    9.9003   -3.1558    0.0000 C   0  0  0  0  0  0  0  0  0  0  0  0
   16.5550   -0.7517    0.0000 C   0  0  0  0  0  0  0  0  0  0  0  0
   15.7136   -2.1450    0.0000 C   0  0  0  0  0  0  0  0  0  0  0  0
   15.2010   -3.5547    0.0000 O   0  0  0  0  0  0  0  0  0  0  0  0
   17.2100   -2.2492    0.0000 N   0  0  0  0  0  0  0  0  0  0  0  0
   17.8679   -3.5973    0.0000 C   0  0  0  0  0  0  0  0  0  0  0  0
   18.0251   -5.0890    0.0000 C   0  0  0  0  0  0  0  0  0  0  0  0
   16.8118   -5.9710    0.0000 C   0  0  0  0  0  0  0  0  0  0  0  0
   19.3643   -3.7015    0.0000 C   0  0  0  0  0  0  0  0  0  0  0  0
   20.2027   -2.4577    0.0000 O   0  0  0  0  0  0  0  0  0  0  0  0
   20.0222   -5.0495    0.0000 N   0  0  0  0  0  0  0  0  0  0  0  0
   21.5185   -5.1538    0.0000 C   0  0  0  0  0  0  0  0  0  0  0  0
   22.9603   -4.7400    0.0000 C   0  0  0  0  0  0  0  0  0  0  0  0
   24.0396   -5.7817    0.0000 C   0  0  0  0  0  0  0  0  0  0  0  0
   25.4814   -5.3678    0.0000 S   0  0  0  0  0  0  0  0  0  0  0  0
   26.5607   -6.4096    0.0000 C   0  0  0  0  0  0  0  0  0  0  0  0
   22.1764   -6.5018    0.0000 C   0  0  0  0  0  0  0  0  0  0  0  0
   23.6489   -6.7877    0.0000 O   0  0  0  0  0  0  0  0  0  0  0  0
   21.3380   -7.7456    0.0000 O   0  0  0  0  0  0  0  0  0  0  0  0
  -10.1626   -8.1336    0.0000 H   0  0  0  0  0  0  0  0  0  0  0  0
  -14.0509  -10.3841    0.0000 H   0  0  0  0  0  0  0  0  0  0  0  0
  -14.1697  -13.3817    0.0000 H   0  0  0  0  0  0  0  0  0  0  0  0
   -9.0671  -10.2894    0.0000 H   0  0  0  0  0  0  0  0  0  0  0  0
   -4.2976  -15.6341    0.0000 H   0  0  0  0  0  0  0  0  0  0  0  0
   -8.2938  -18.9552    0.0000 H   0  0  0  0  0  0  0  0  0  0  0  0
  -10.2113  -16.6480    0.0000 H   0  0  0  0  0  0  0  0  0  0  0  0
   -5.8567  -19.8554    0.0000 H   0  0  0  0  0  0  0  0  0  0  0  0
  -11.0894  -11.5266    0.0000 H   0  0  0  0  0  0  0  0  0  0  0  0
   -9.9022   -8.6041    0.0000 H   0  0  0  0  0  0  0  0  0  0  0  0
   -5.1757  -10.5127    0.0000 H   0  0  0  0  0  0  0  0  0  0  0  0
   -5.6147   -7.9519    0.0000 H   0  0  0  0  0  0  0  0  0  0  0  0
  -11.2765   -5.9906    0.0000 H   0  0  0  0  0  0  0  0  0  0  0  0
  -15.3383   -5.5688    0.0000 H   0  0  0  0  0  0  0  0  0  0  0  0
  -14.4410   -7.2757    0.0000 H   0  0  0  0  0  0  0  0  0  0  0  0
  -13.2446   -3.0007    0.0000 H   0  0  0  0  0  0  0  0  0  0  0  0
  -12.3474   -4.7076    0.0000 H   0  0  0  0  0  0  0  0  0  0  0  0
  -13.6942   -1.3911    0.0000 H   0  0  0  0  0  0  0  0  0  0  0  0
  -16.8587   -2.6763    0.0000 H   0  0  0  0  0  0  0  0  0  0  0  0
  -19.2424   -1.1711    0.0000 H   0  0  0  0  0  0  0  0  0  0  0  0
  -17.8154   -2.4682    0.0000 H   0  0  0  0  0  0  0  0  0  0  0  0
  -18.1533    1.9582    0.0000 H   0  0  0  0  0  0  0  0  0  0  0  0
  -16.9952    1.3354    0.0000 H   0  0  0  0  0  0  0  0  0  0  0  0
  -22.1532   -0.0130    0.0000 H   0  0  0  0  0  0  0  0  0  0  0  0
  -18.9563    0.6556    0.0000 H   0  0  0  0  0  0  0  0  0  0  0  0
  -15.9739    2.1915    0.0000 H   0  0  0  0  0  0  0  0  0  0  0  0
  -16.4508    5.3384    0.0000 H   0  0  0  0  0  0  0  0  0  0  0  0
  -18.2162    4.5625    0.0000 H   0  0  0  0  0  0  0  0  0  0  0  0
  -13.2726    5.3962    0.0000 H   0  0  0  0  0  0  0  0  0  0  0  0
  -15.1627    7.0273    0.0000 H   0  0  0  0  0  0  0  0  0  0  0  0
  -20.6270    4.4708    0.0000 H   0  0  0  0  0  0  0  0  0  0  0  0
  -21.1712    6.4031    0.0000 H   0  0  0  0  0  0  0  0  0  0  0  0
  -20.7602    7.5160    0.0000 H   0  0  0  0  0  0  0  0  0  0  0  0
  -19.0907    8.6306    0.0000 H   0  0  0  0  0  0  0  0  0  0  0  0
  -17.9052    8.5836    0.0000 H   0  0  0  0  0  0  0  0  0  0  0  0
  -16.4345    7.6905    0.0000 H   0  0  0  0  0  0  0  0  0  0  0  0
  -16.4025    4.5236    0.0000 H   0  0  0  0  0  0  0  0  0  0  0  0
  -14.6801    3.7767    0.0000 H   0  0  0  0  0  0  0  0  0  0  0  0
  -14.2254    7.1003    0.0000 H   0  0  0  0  0  0  0  0  0  0  0  0
  -11.6066    8.1440    0.0000 H   0  0  0  0  0  0  0  0  0  0  0  0
  -13.4947    7.7520    0.0000 H   0  0  0  0  0  0  0  0  0  0  0  0
   -9.7151    5.4236    0.0000 H   0  0  0  0  0  0  0  0  0  0  0  0
  -10.8996    4.8527    0.0000 H   0  0  0  0  0  0  0  0  0  0  0  0
   -8.9587    9.8182    0.0000 H   0  0  0  0  0  0  0  0  0  0  0  0
  -10.2969    6.8389    0.0000 H   0  0  0  0  0  0  0  0  0  0  0  0
  -10.8073    3.5233    0.0000 H   0  0  0  0  0  0  0  0  0  0  0  0
   -7.8434    2.1802    0.0000 H   0  0  0  0  0  0  0  0  0  0  0  0
   -7.5712    3.9438    0.0000 H   0  0  0  0  0  0  0  0  0  0  0  0
   -8.8206    0.6490    0.0000 H   0  0  0  0  0  0  0  0  0  0  0  0
   -7.1500    2.6483    0.0000 H   0  0  0  0  0  0  0  0  0  0  0  0
   -6.5122    5.9791    0.0000 H   0  0  0  0  0  0  0  0  0  0  0  0
   -5.8860    6.4803    0.0000 H   0  0  0  0  0  0  0  0  0  0  0  0
   -1.9467    6.0859    0.0000 H   0  0  0  0  0  0  0  0  0  0  0  0
   -2.0019    4.3023    0.0000 H   0  0  0  0  0  0  0  0  0  0  0  0
   -3.1865    3.7314    0.0000 H   0  0  0  0  0  0  0  0  0  0  0  0
   -2.7740    8.0212    0.0000 H   0  0  0  0  0  0  0  0  0  0  0  0
   -2.5260    6.4063    0.0000 H   0  0  0  0  0  0  0  0  0  0  0  0
   -3.9719    9.6197    0.0000 H   0  0  0  0  0  0  0  0  0  0  0  0
   -5.8600    9.2277    0.0000 H   0  0  0  0  0  0  0  0  0  0  0  0
   -5.9151    7.4441    0.0000 H   0  0  0  0  0  0  0  0  0  0  0  0
   -2.5838    5.7176    0.0000 H   0  0  0  0  0  0  0  0  0  0  0  0
   -3.2075    2.5459    0.0000 H   0  0  0  0  0  0  0  0  0  0  0  0
   -0.0082    1.1956    0.0000 H   0  0  0  0  0  0  0  0  0  0  0  0
    0.1419    2.8225    0.0000 H   0  0  0  0  0  0  0  0  0  0  0  0
   -3.1784    1.5822    0.0000 H   0  0  0  0  0  0  0  0  0  0  0  0
   -1.6516   -1.8701    0.0000 H   0  0  0  0  0  0  0  0  0  0  0  0
    0.0702   -1.4013    0.0000 H   0  0  0  0  0  0  0  0  0  0  0  0
    0.1253    0.3823    0.0000 H   0  0  0  0  0  0  0  0  0  0  0  0
   -2.8921   -1.6897    0.0000 H   0  0  0  0  0  0  0  0  0  0  0  0
   -4.4092   -0.7502    0.0000 H   0  0  0  0  0  0  0  0  0  0  0  0
   -3.8046    1.0810    0.0000 H   0  0  0  0  0  0  0  0  0  0  0  0
    0.5631    1.5271    0.0000 H   0  0  0  0  0  0  0  0  0  0  0  0
    1.2009    4.8578    0.0000 H   0  0  0  0  0  0  0  0  0  0  0  0
    3.8197    5.9015    0.0000 H   0  0  0  0  0  0  0  0  0  0  0  0
    1.9316    5.5095    0.0000 H   0  0  0  0  0  0  0  0  0  0  0  0
    3.4926    2.0309    0.0000 H   0  0  0  0  0  0  0  0  0  0  0  0
    4.9559    4.6553    0.0000 H   0  0  0  0  0  0  0  0  0  0  0  0
    4.3327    0.9675    0.0000 H   0  0  0  0  0  0  0  0  0  0  0  0
    4.7528   -0.2715    0.0000 H   0  0  0  0  0  0  0  0  0  0  0  0
    4.8644   -0.8863    0.0000 H   0  0  0  0  0  0  0  0  0  0  0  0
    5.4753   -1.8500    0.0000 H   0  0  0  0  0  0  0  0  0  0  0  0
    5.8453   -2.3332    0.0000 H   0  0  0  0  0  0  0  0  0  0  0  0
    6.9639   -3.2881    0.0000 H   0  0  0  0  0  0  0  0  0  0  0  0
    7.7986   -4.0239    0.0000 H   0  0  0  0  0  0  0  0  0  0  0  0
    3.9797    0.1501    0.0000 H   0  0  0  0  0  0  0  0  0  0  0  0
    3.0111    1.0395    0.0000 H   0  0  0  0  0  0  0  0  0  0  0  0
    3.6247    2.8676    0.0000 H   0  0  0  0  0  0  0  0  0  0  0  0
    5.7223    5.9769    0.0000 H   0  0  0  0  0  0  0  0  0  0  0  0
    6.6254    6.6269    0.0000 H   0  0  0  0  0  0  0  0  0  0  0  0
    8.4936    8.9294    0.0000 H   0  0  0  0  0  0  0  0  0  0  0  0
    9.4838    7.6297    0.0000 H   0  0  0  0  0  0  0  0  0  0  0  0
    4.8370    6.2222    0.0000 H   0  0  0  0  0  0  0  0  0  0  0  0
    2.8175    8.5879    0.0000 H   0  0  0  0  0  0  0  0  0  0  0  0
    4.4343   11.4225    0.0000 H   0  0  0  0  0  0  0  0  0  0  0  0
   10.8768    8.3353    0.0000 H   0  0  0  0  0  0  0  0  0  0  0  0
   11.7739    7.9776    0.0000 H   0  0  0  0  0  0  0  0  0  0  0  0
   14.9130    8.0094    0.0000 H   0  0  0  0  0  0  0  0  0  0  0  0
   14.5142    6.4250    0.0000 H   0  0  0  0  0  0  0  0  0  0  0  0
   14.4301    9.9476    0.0000 H   0  0  0  0  0  0  0  0  0  0  0  0
   12.5380   10.3198    0.0000 H   0  0  0  0  0  0  0  0  0  0  0  0
   11.7943    8.6977    0.0000 H   0  0  0  0  0  0  0  0  0  0  0  0
   15.9344    5.7758    0.0000 H   0  0  0  0  0  0  0  0  0  0  0  0
   16.2141    4.8514    0.0000 H   0  0  0  0  0  0  0  0  0  0  0  0
   18.1961    2.4170    0.0000 H   0  0  0  0  0  0  0  0  0  0  0  0
   16.7087    1.7409    0.0000 H   0  0  0  0  0  0  0  0  0  0  0  0
   18.5217    5.7143    0.0000 H   0  0  0  0  0  0  0  0  0  0  0  0
   16.7898    5.2844    0.0000 H   0  0  0  0  0  0  0  0  0  0  0  0
   21.8890    4.7818    0.0000 H   0  0  0  0  0  0  0  0  0  0  0  0
   19.9753    6.5389    0.0000 H   0  0  0  0  0  0  0  0  0  0  0  0
   17.0866    0.2258    0.0000 H   0  0  0  0  0  0  0  0  0  0  0  0
   14.3289   -3.4331    0.0000 H   0  0  0  0  0  0  0  0  0  0  0  0
   15.4042   -2.6878    0.0000 H   0  0  0  0  0  0  0  0  0  0  0  0
   12.8086   -4.2711    0.0000 H   0  0  0  0  0  0  0  0  0  0  0  0
   13.8732   -3.8606    0.0000 H   0  0  0  0  0  0  0  0  0  0  0  0
   10.7563   -4.5402    0.0000 H   0  0  0  0  0  0  0  0  0  0  0  0
   12.2235   -4.4390    0.0000 H   0  0  0  0  0  0  0  0  0  0  0  0
    9.6476   -4.6343    0.0000 H   0  0  0  0  0  0  0  0  0  0  0  0
   17.6291   -1.7987    0.0000 H   0  0  0  0  0  0  0  0  0  0  0  0
   17.8704   -0.0307    0.0000 H   0  0  0  0  0  0  0  0  0  0  0  0
   16.6145    0.7471    0.0000 H   0  0  0  0  0  0  0  0  0  0  0  0
   18.1938   -1.1169    0.0000 H   0  0  0  0  0  0  0  0  0  0  0  0
   16.3864   -3.8322    0.0000 H   0  0  0  0  0  0  0  0  0  0  0  0
   18.5137   -6.5072    0.0000 H   0  0  0  0  0  0  0  0  0  0  0  0
   19.5241   -5.0363    0.0000 H   0  0  0  0  0  0  0  0  0  0  0  0
   16.9689   -7.4627    0.0000 H   0  0  0  0  0  0  0  0  0  0  0  0
   15.3700   -6.3848    0.0000 H   0  0  0  0  0  0  0  0  0  0  0  0
   15.9944   -4.7132    0.0000 H   0  0  0  0  0  0  0  0  0  0  0  0
   19.3415   -6.3862    0.0000 H   0  0  0  0  0  0  0  0  0  0  0  0
   21.3614   -3.6620    0.0000 H   0  0  0  0  0  0  0  0  0  0  0  0
   24.1736   -3.8580    0.0000 H   0  0  0  0  0  0  0  0  0  0  0  0
   22.3024   -3.3919    0.0000 H   0  0  0  0  0  0  0  0  0  0  0  0
   24.5283   -7.1998    0.0000 H   0  0  0  0  0  0  0  0  0  0  0  0
   23.2231   -7.0400    0.0000 H   0  0  0  0  0  0  0  0  0  0  0  0
   28.0024   -5.9957    0.0000 H   0  0  0  0  0  0  0  0  0  0  0  0
   27.2186   -7.7576    0.0000 H   0  0  0  0  0  0  0  0  0  0  0  0
   25.4639   -7.4329    0.0000 H   0  0  0  0  0  0  0  0  0  0  0  0
   21.9959   -9.0936    0.0000 H   0  0  0  0  0  0  0  0  0  0  0  0
  1  2  1  0
  2  3  1  0
  3  4  2  0
  4  5  1  0
  5  6  2  0
  6  7  1  0
  7  8  2  0
  7  9  1  0
  9 10  1  0
 10 11  1  0
 11 12  2  0
  9 13  1  0
 13 14  1  0
 14 15  2  0
 15 16  1  0
 16 17  2  0
 17 18  1  0
 16 19  1  0
 14 20  1  0
 20 21  1  0
 21 22  2  0
 22 23  1  0
 23 24  2  0
 24 25  1  0
 25 26  2  0
 25 27  1  0
  1 28  2  0
  1 29  1  0
 29 30  1  0
 30 31  1  0
 31 32  1  0
 32 33  2  0
 32 34  1  0
 34 35  1  0
 35 36  1  0
 36 37  1  0
 37 38  1  0
 38 39  2  0
 38 40  1  0
 35 41  1  0
 41 42  2  0
 41 43  1  0
 43 44  1  0
 44 45  1  0
 45 46  1  0
 46 47  1  0
 46 48  2  0
 44 49  1  0
 49 50  2  0
 49 51  1  0
 51 52  1  0
 52 53  1  0
 53 54  1  0
 54 55  1  0
 55 56  1  0
 56 57  2  0
 56 58  1  0
 58 59  1  0
 59 60  1  0
 60 61  1  0
 61 62  1  0
 62 63  2  0
 62 64  1  0
 59 65  1  0
 65 66  2  0
 65 67  1  0
 67 68  1  0
 68 69  1  0
 69 70  1  0
 68 71  1  0
 71 72  2  0
 71 73  1  0
 73 74  1  0
 74 75  1  0
 75 76  1  0
 75 77  1  0
 77 78  1  0
 74 79  1  0
 79 80  2  0
 79 81  1  0
 81 82  1  0
 82 83  1  0
 83 84  1  0
 84 85  1  0
 84 86  1  0
 82 87  1  0
 87 88  2  0
 87 89  1  0
 89 90  1  0
 90 91  1  0
 91 92  1  0
 92 93  2  0
 92 94  1  0
 90 95  1  0
 95 96  2  0
 95 97  1  0
 98 97  1  6
 98 99  1  0
 99100  1  0
100101  1  0
101102  1  0
 98103  1  0
 98104  1  0
104105  2  0
104106  1  0
106107  1  0
107108  1  0
108109  1  0
109110  2  0
110111  1  0
111112  1  0
112113  2  0
107114  1  0
114115  2  0
114116  1  0
116117  1  0
117118  1  0
118119  1  0
117120  1  0
120121  2  0
120122  1  0
122123  1  0
123124  1  0
124125  1  0
125126  1  0
126127  1  0
126128  2  0
123129  1  0
129130  2  0
129131  1  0
131132  1  0
132133  1  0
133134  1  0
134135  1  0
135136  1  0
132137  1  0
132138  1  6
138139  2  0
138140  1  0
140141  1  0
141142  1  0
142143  1  0
141144  1  0
144145  2  0
144146  1  0
146147  1  0
147148  1  0
148149  1  0
149150  1  0
150151  1  0
147152  1  0
152153  2  0
152154  1  0
  8  3  1  0
 55 51  1  0
113109  1  0
 11  6  1  0
102136  2  0
 18 13  2  0
 22  9  1  0
 26 21  1  0
  2155  1  0
  4156  1  0
  5157  1  0
  8158  1  0
 15159  1  0
 17160  1  0
 18161  1  0
 19162  1  0
 23163  1  0
 24164  1  0
 26165  1  0
 27166  1  0
 29167  1  0
 30168  1  0
 30169  1  0
 31170  1  0
 31171  1  0
 34172  1  0
 35173  1  1
 36174  1  0
 36175  1  0
 37176  1  0
 37177  1  0
 40178  1  0
 43179  1  0
 44180  1  6
 45181  1  0
 45182  1  0
 47183  1  0
 47184  1  0
 52185  1  0
 52186  1  0
 53187  1  0
 53188  1  0
 54189  1  0
 54190  1  0
 55191  1  0
 58192  1  0
 59193  1  1
 60194  1  0
 60195  1  0
 61196  1  0
 61197  1  0
 64198  1  0
 67199  1  0
 68200  1  6
 69201  1  0
 69202  1  0
 70203  1  0
 73204  1  0
 74205  1  1
 75206  1  1
 76207  1  0
 76208  1  0
 76209  1  0
 77210  1  0
 77211  1  0
 78212  1  0
 78213  1  0
 78214  1  0
 81215  1  0
 82216  1  6
 83217  1  0
 83218  1  0
 84219  1  0
 85220  1  0
 85221  1  0
 85222  1  0
 86223  1  0
 86224  1  0
 86225  1  0
 89226  1  0
 90227  1  1
 91228  1  0
 91229  1  0
 94230  1  0
 97231  1  0
 99232  1  0
 99233  1  0
100234  1  0
100235  1  0
101236  1  0
101237  1  0
102238  1  0
103239  1  0
103240  1  0
103241  1  0
106242  1  0
107243  1  1
108244  1  0
108245  1  0
110246  1  0
111247  1  0
112248  1  0
116249  1  0
117250  1  1
118251  1  0
118252  1  0
119253  1  0
119254  1  0
119255  1  0
122256  1  0
123257  1  1
124258  1  0
124259  1  0
125260  1  0
125261  1  0
127262  1  0
127263  1  0
131264  1  0
133265  1  0
133266  1  0
134267  1  0
134268  1  0
135269  1  0
135270  1  0
136271  1  0
137272  1  0
137273  1  0
137274  1  0
140275  1  0
141276  1  6
142277  1  0
142278  1  0
143279  1  0
143280  1  0
143281  1  0
146282  1  0
147283  1  1
148284  1  0
148285  1  0
149286  1  0
149287  1  0
151288  1  0
151289  1  0
151290  1  0
154291  1  0
M  END
