
     RDKit          2D

214223  0  0  0  0  0  0  0  0999 V2000
  -12.7777    0.1884    0.0000 C   0  0  0  0  0  0  0  0  0  0  0  0
  -13.5719   -1.0842    0.0000 N   0  0  0  0  0  0  0  0  0  0  0  0
  -15.0710   -1.0327    0.0000 C   0  0  0  0  0  0  0  0  0  0  0  0
  -15.7760    0.2913    0.0000 C   0  0  0  0  0  0  0  0  0  0  0  0
  -17.2751    0.3428    0.0000 C   0  0  0  0  0  0  0  0  0  0  0  0
  -18.0692   -0.9297    0.0000 C   0  0  0  0  0  0  0  0  0  0  0  0
  -17.3643   -2.2537    0.0000 C   0  0  0  0  0  0  0  0  0  0  0  0
  -15.8652   -2.3052    0.0000 C   0  0  0  0  0  0  0  0  0  0  0  0
  -18.4057   -3.3333    0.0000 C   0  0  0  0  0  0  0  0  0  0  0  0
  -19.7542   -2.6765    0.0000 O   0  0  0  0  0  0  0  0  0  0  0  0
  -19.5463   -1.1910    0.0000 C   0  0  0  0  0  0  0  0  0  0  0  0
  -20.6259   -0.1496    0.0000 O   0  0  0  0  0  0  0  0  0  0  0  0
  -19.5542   -4.2981    0.0000 C   0  0  0  0  0  0  0  0  0  0  0  0
  -19.2929   -5.7752    0.0000 C   0  0  0  0  0  0  0  0  0  0  0  0
  -20.4414   -6.7400    0.0000 C   0  0  0  0  0  0  0  0  0  0  0  0
  -21.8512   -6.2278    0.0000 C   0  0  0  0  0  0  0  0  0  0  0  0
  -22.1125   -4.7507    0.0000 C   0  0  0  0  0  0  0  0  0  0  0  0
  -20.9640   -3.7859    0.0000 C   0  0  0  0  0  0  0  0  0  0  0  0
  -22.9997   -7.1926    0.0000 O   0  0  0  0  0  0  0  0  0  0  0  0
  -17.8830   -6.2874    0.0000 O   0  0  0  0  0  0  0  0  0  0  0  0
  -16.7345   -5.3226    0.0000 C   0  0  0  0  0  0  0  0  0  0  0  0
  -16.9958   -3.8455    0.0000 C   0  0  0  0  0  0  0  0  0  0  0  0
  -15.7254   -3.5700    0.0000 C   0  0  0  0  0  0  0  0  0  0  0  0
  -14.9735   -3.8432    0.0000 C   0  0  0  0  0  0  0  0  0  0  0  0
  -14.8341   -4.6309    0.0000 C   0  0  0  0  0  0  0  0  0  0  0  0
  -15.4466   -5.1455    0.0000 C   0  0  0  0  0  0  0  0  0  0  0  0
  -12.7663   -5.3822    0.0000 O   0  0  0  0  0  0  0  0  0  0  0  0
  -13.4827    1.5124    0.0000 S   0  0  0  0  0  0  0  0  0  0  0  0
  -11.2786    0.1369    0.0000 N   0  0  0  0  0  0  0  0  0  0  0  0
  -10.4845    1.4094    0.0000 C   0  0  0  0  0  0  0  0  0  0  0  0
   -8.9854    1.3579    0.0000 C   0  0  0  0  0  0  0  0  0  0  0  0
   -8.1912    2.6304    0.0000 C   0  0  0  0  0  0  0  0  0  0  0  0
   -8.7250    3.2225    0.0000 O   0  0  0  0  0  0  0  0  0  0  0  0
   -6.6921    2.5789    0.0000 N   0  0  0  0  0  0  0  0  0  0  0  0
   -5.8979    3.8514    0.0000 C   0  0  0  0  0  0  0  0  0  0  0  0
   -7.2890    4.4125    0.0000 C   0  0  0  0  0  0  0  0  0  0  0  0
   -8.4705    3.4884    0.0000 C   0  0  0  0  0  0  0  0  0  0  0  0
   -9.8616    4.0495    0.0000 C   0  0  0  0  0  0  0  0  0  0  0  0
  -11.0431    3.1253    0.0000 C   0  0  0  0  0  0  0  0  0  0  0  0
  -10.8335    1.6401    0.0000 C   0  0  0  0  0  0  0  0  0  0  0  0
   -9.4424    1.0789    0.0000 C   0  0  0  0  0  0  0  0  0  0  0  0
   -8.2609    2.0031    0.0000 C   0  0  0  0  0  0  0  0  0  0  0  0
   -4.7164    4.7756    0.0000 C   0  0  0  0  0  0  0  0  0  0  0  0
   -5.2792    6.1660    0.0000 O   0  0  0  0  0  0  0  0  0  0  0  0
   -3.3253    4.2145    0.0000 N   0  0  0  0  0  0  0  0  0  0  0  0
   -2.1439    5.1386    0.0000 C   0  0  0  0  0  0  0  0  0  0  0  0
   -3.2591    6.1417    0.0000 C   0  0  0  0  0  0  0  0  0  0  0  0
   -4.6855    5.6774    0.0000 C   0  0  0  0  0  0  0  0  0  0  0  0
   -5.8007    6.6804    0.0000 S   0  0  0  0  0  0  0  0  0  0  0  0
   -7.2271    6.2161    0.0000 C   0  0  0  0  0  0  0  0  0  0  0  0
   -0.7175    5.6030    0.0000 C   0  0  0  0  0  0  0  0  0  0  0  0
   -0.5877    7.0973    0.0000 O   0  0  0  0  0  0  0  0  0  0  0  0
    0.3978    4.5999    0.0000 N   0  0  0  0  0  0  0  0  0  0  0  0
    1.8241    5.0642    0.0000 C   0  0  0  0  0  0  0  0  0  0  0  0
    2.5043    6.4011    0.0000 C   0  0  0  0  0  0  0  0  0  0  0  0
    3.6444    7.3760    0.0000 C   0  0  0  0  0  0  0  0  0  0  0  0
    5.0707    7.8403    0.0000 C   0  0  0  0  0  0  0  0  0  0  0  0
    6.5661    7.7235    0.0000 C   0  0  0  0  0  0  0  0  0  0  0  0
    0.7176    6.0770    0.0000 C   0  0  0  0  0  0  0  0  0  0  0  0
    1.7072    3.5688    0.0000 C   0  0  0  0  0  0  0  0  0  0  0  0
    0.2504    3.2114    0.0000 O   0  0  0  0  0  0  0  0  0  0  0  0
    2.1716    2.1425    0.0000 N   0  0  0  0  0  0  0  0  0  0  0  0
    3.1464    1.0024    0.0000 C   0  0  0  0  0  0  0  0  0  0  0  0
    1.7201    0.5381    0.0000 C   0  0  0  0  0  0  0  0  0  0  0  0
    1.4090   -0.9293    0.0000 C   0  0  0  0  0  0  0  0  0  0  0  0
   -0.0173   -1.3936    0.0000 C   0  0  0  0  0  0  0  0  0  0  0  0
   -0.3283   -2.8610    0.0000 C   0  0  0  0  0  0  0  0  0  0  0  0
    0.7870   -3.8641    0.0000 C   0  0  0  0  0  0  0  0  0  0  0  0
    0.4759   -5.3315    0.0000 O   0  0  0  0  0  0  0  0  0  0  0  0
    2.2133   -3.3998    0.0000 C   0  0  0  0  0  0  0  0  0  0  0  0
    2.5243   -1.9324    0.0000 C   0  0  0  0  0  0  0  0  0  0  0  0
    4.4833    0.3222    0.0000 C   0  0  0  0  0  0  0  0  0  0  0  0
    4.2560   -1.1605    0.0000 O   0  0  0  0  0  0  0  0  0  0  0  0
    5.9787    0.2054    0.0000 N   0  0  0  0  0  0  0  0  0  0  0  0
    7.4515    1.2638    0.0000 C   0  0  0  0  0  0  0  0  0  0  0  0
    8.1263    2.6034    0.0000 C   0  0  0  0  0  0  0  0  0  0  0  0
    9.3156    3.5175    0.0000 C   0  0  0  0  0  0  0  0  0  0  0  0
    7.9932    4.2256    0.0000 C   0  0  0  0  0  0  0  0  0  0  0  0
    7.4354    5.6180    0.0000 N   0  0  0  0  0  0  0  0  0  0  0  0
    7.9030    7.0432    0.0000 C   0  0  0  0  0  0  0  0  0  0  0  0
    9.1774    7.8344    0.0000 C   0  0  0  0  0  0  0  0  0  0  0  0
   10.6622    7.6213    0.0000 C   0  0  0  0  0  0  0  0  0  0  0  0
   11.6626    6.5037    0.0000 C   0  0  0  0  0  0  0  0  0  0  0  0
   11.7106    5.0045    0.0000 C   0  0  0  0  0  0  0  0  0  0  0  0
   10.7837    3.8252    0.0000 C   0  0  0  0  0  0  0  0  0  0  0  0
    7.4247   -0.2360    0.0000 C   0  0  0  0  0  0  0  0  0  0  0  0
    6.1644   -1.0494    0.0000 O   0  0  0  0  0  0  0  0  0  0  0  0
    8.0513   -1.5988    0.0000 N   0  0  0  0  0  0  0  0  0  0  0  0
    9.2071   -2.5549    0.0000 C   0  0  0  0  0  0  0  0  0  0  0  0
    7.8949   -3.2815    0.0000 C   0  0  0  0  0  0  0  0  0  0  0  0
    7.8681   -4.7813    0.0000 C   0  0  0  0  0  0  0  0  0  0  0  0
    6.5559   -5.5080    0.0000 C   0  0  0  0  0  0  0  0  0  0  0  0
    6.5291   -7.0077    0.0000 C   0  0  0  0  0  0  0  0  0  0  0  0
    5.2168   -7.7344    0.0000 N   0  0  0  0  0  0  0  0  0  0  0  0
   10.6633   -2.9147    0.0000 C   0  0  0  0  0  0  0  0  0  0  0  0
   10.6365   -4.4145    0.0000 O   0  0  0  0  0  0  0  0  0  0  0  0
   12.1314   -2.6071    0.0000 N   0  0  0  0  0  0  0  0  0  0  0  0
   13.3207   -1.6930    0.0000 C   0  0  0  0  0  0  0  0  0  0  0  0
   13.9956   -0.3534    0.0000 C   0  0  0  0  0  0  0  0  0  0  0  0
   14.0224    1.1464    0.0000 C   0  0  0  0  0  0  0  0  0  0  0  0
   13.3958    2.5093    0.0000 C   0  0  0  0  0  0  0  0  0  0  0  0
   12.2399    3.4653    0.0000 C   0  0  0  0  0  0  0  0  0  0  0  0
   14.7862   -2.0128    0.0000 C   0  0  0  0  0  0  0  0  0  0  0  0
   13.7372   -3.1340    0.0000 C   0  0  0  0  0  0  0  0  0  0  0  0
   12.8370   -4.3338    0.0000 O   0  0  0  0  0  0  0  0  0  0  0  0
   15.1934   -3.4938    0.0000 N   0  0  0  0  0  0  0  0  0  0  0  0
   15.6098   -4.9349    0.0000 C   0  0  0  0  0  0  0  0  0  0  0  0
   15.5083   -6.4314    0.0000 C   0  0  0  0  0  0  0  0  0  0  0  0
   14.1615   -7.0918    0.0000 C   0  0  0  0  0  0  0  0  0  0  0  0
   14.0600   -8.5884    0.0000 C   0  0  0  0  0  0  0  0  0  0  0  0
   12.6700   -7.2517    0.0000 C   0  0  0  0  0  0  0  0  0  0  0  0
   17.0660   -5.2947    0.0000 C   0  0  0  0  0  0  0  0  0  0  0  0
   17.6550   -6.6742    0.0000 O   0  0  0  0  0  0  0  0  0  0  0  0
   18.1057   -4.2135    0.0000 O   0  0  0  0  0  0  0  0  0  0  0  0
  -12.7108   -2.3124    0.0000 H   0  0  0  0  0  0  0  0  0  0  0  0
  -14.9818    1.5639    0.0000 H   0  0  0  0  0  0  0  0  0  0  0  0
  -17.9801    1.6669    0.0000 H   0  0  0  0  0  0  0  0  0  0  0  0
  -14.8608   -3.4193    0.0000 H   0  0  0  0  0  0  0  0  0  0  0  0
  -20.1801   -8.2171    0.0000 H   0  0  0  0  0  0  0  0  0  0  0  0
  -23.5224   -4.2385    0.0000 H   0  0  0  0  0  0  0  0  0  0  0  0
  -21.2253   -2.3088    0.0000 H   0  0  0  0  0  0  0  0  0  0  0  0
  -24.4096   -6.6804    0.0000 H   0  0  0  0  0  0  0  0  0  0  0  0
  -16.1086   -1.4036    0.0000 H   0  0  0  0  0  0  0  0  0  0  0  0
  -13.1799   -2.5753    0.0000 H   0  0  0  0  0  0  0  0  0  0  0  0
  -15.0634   -7.3119    0.0000 H   0  0  0  0  0  0  0  0  0  0  0  0
  -12.5050   -6.8593    0.0000 H   0  0  0  0  0  0  0  0  0  0  0  0
  -10.5737   -1.1872    0.0000 H   0  0  0  0  0  0  0  0  0  0  0  0
  -11.8756    1.9705    0.0000 H   0  0  0  0  0  0  0  0  0  0  0  0
  -10.1734    2.8768    0.0000 H   0  0  0  0  0  0  0  0  0  0  0  0
   -9.1152   -0.1365    0.0000 H   0  0  0  0  0  0  0  0  0  0  0  0
   -7.5943    0.7968    0.0000 H   0  0  0  0  0  0  0  0  0  0  0  0
   -5.8310    1.3507    0.0000 H   0  0  0  0  0  0  0  0  0  0  0  0
   -4.7826    2.8484    0.0000 H   0  0  0  0  0  0  0  0  0  0  0  0
   -8.5183    5.2722    0.0000 H   0  0  0  0  0  0  0  0  0  0  0  0
   -6.3457    5.5788    0.0000 H   0  0  0  0  0  0  0  0  0  0  0  0
  -10.0712    5.5348    0.0000 H   0  0  0  0  0  0  0  0  0  0  0  0
  -12.4342    3.6865    0.0000 H   0  0  0  0  0  0  0  0  0  0  0  0
  -12.0150    0.7159    0.0000 H   0  0  0  0  0  0  0  0  0  0  0  0
   -9.4154   -0.4208    0.0000 H   0  0  0  0  0  0  0  0  0  0  0  0
   -6.9486    1.2766    0.0000 H   0  0  0  0  0  0  0  0  0  0  0  0
   -3.1157    2.7292    0.0000 H   0  0  0  0  0  0  0  0  0  0  0  0
   -1.4389    3.8146    0.0000 H   0  0  0  0  0  0  0  0  0  0  0  0
   -3.9641    7.4657    0.0000 H   0  0  0  0  0  0  0  0  0  0  0  0
   -2.0776    7.0659    0.0000 H   0  0  0  0  0  0  0  0  0  0  0  0
   -5.7455    4.6161    0.0000 H   0  0  0  0  0  0  0  0  0  0  0  0
   -4.3218    4.2221    0.0000 H   0  0  0  0  0  0  0  0  0  0  0  0
   -8.3424    7.2192    0.0000 H   0  0  0  0  0  0  0  0  0  0  0  0
   -8.5124    5.4428    0.0000 H   0  0  0  0  0  0  0  0  0  0  0  0
   -6.5221    4.8921    0.0000 H   0  0  0  0  0  0  0  0  0  0  0  0
   -0.0898    3.1814    0.0000 H   0  0  0  0  0  0  0  0  0  0  0  0
    2.0400    7.8275    0.0000 H   0  0  0  0  0  0  0  0  0  0  0  0
    1.0343    6.6994    0.0000 H   0  0  0  0  0  0  0  0  0  0  0  0
    3.5780    8.8745    0.0000 H   0  0  0  0  0  0  0  0  0  0  0  0
    2.4003    8.2141    0.0000 H   0  0  0  0  0  0  0  0  0  0  0  0
    5.7509    9.1772    0.0000 H   0  0  0  0  0  0  0  0  0  0  0  0
    4.2421    9.0907    0.0000 H   0  0  0  0  0  0  0  0  0  0  0  0
    6.9725    9.1674    0.0000 H   0  0  0  0  0  0  0  0  0  0  0  0
   -0.6211    6.2595    0.0000 H   0  0  0  0  0  0  0  0  0  0  0  0
    0.5128    7.6457    0.0000 H   0  0  0  0  0  0  0  0  0  0  0  0
    1.7279    7.4176    0.0000 H   0  0  0  0  0  0  0  0  0  0  0  0
    0.7836    1.5738    0.0000 H   0  0  0  0  0  0  0  0  0  0  0  0
    3.0296   -0.4930    0.0000 H   0  0  0  0  0  0  0  0  0  0  0  0
    0.2210    0.5896    0.0000 H   0  0  0  0  0  0  0  0  0  0  0  0
    0.9920    1.8495    0.0000 H   0  0  0  0  0  0  0  0  0  0  0  0
   -1.1326   -0.3906    0.0000 H   0  0  0  0  0  0  0  0  0  0  0  0
   -1.7546   -3.3254    0.0000 H   0  0  0  0  0  0  0  0  0  0  0  0
    1.5912   -6.3346    0.0000 H   0  0  0  0  0  0  0  0  0  0  0  0
    3.3286   -4.4028    0.0000 H   0  0  0  0  0  0  0  0  0  0  0  0
    3.9966   -1.6454    0.0000 H   0  0  0  0  0  0  0  0  0  0  0  0
    5.9730   -1.2946    0.0000 H   0  0  0  0  0  0  0  0  0  0  0  0
    5.9953    1.6236    0.0000 H   0  0  0  0  0  0  0  0  0  0  0  0
    7.3736    3.9008    0.0000 H   0  0  0  0  0  0  0  0  0  0  0  0
    6.6270    2.5591    0.0000 H   0  0  0  0  0  0  0  0  0  0  0  0
    6.7620    3.3688    0.0000 H   0  0  0  0  0  0  0  0  0  0  0  0
    5.9361    5.5700    0.0000 H   0  0  0  0  0  0  0  0  0  0  0  0
    8.8698    9.3025    0.0000 H   0  0  0  0  0  0  0  0  0  0  0  0
   11.3702    8.9437    0.0000 H   0  0  0  0  0  0  0  0  0  0  0  0
   13.0550    7.0616    0.0000 H   0  0  0  0  0  0  0  0  0  0  0  0
   13.1822    4.7140    0.0000 H   0  0  0  0  0  0  0  0  0  0  0  0
    6.7594   -2.3612    0.0000 H   0  0  0  0  0  0  0  0  0  0  0  0
    9.5839   -4.0068    0.0000 H   0  0  0  0  0  0  0  0  0  0  0  0
    6.3958   -3.3332    0.0000 H   0  0  0  0  0  0  0  0  0  0  0  0
    6.9311   -2.1322    0.0000 H   0  0  0  0  0  0  0  0  0  0  0  0
    8.5251   -6.1297    0.0000 H   0  0  0  0  0  0  0  0  0  0  0  0
    9.3672   -4.7296    0.0000 H   0  0  0  0  0  0  0  0  0  0  0  0
    5.0568   -5.5597    0.0000 H   0  0  0  0  0  0  0  0  0  0  0  0
    5.8988   -4.1595    0.0000 H   0  0  0  0  0  0  0  0  0  0  0  0
    7.0168   -8.4262    0.0000 H   0  0  0  0  0  0  0  0  0  0  0  0
    8.0282   -6.9560    0.0000 H   0  0  0  0  0  0  0  0  0  0  0  0
    5.1901   -9.2342    0.0000 H   0  0  0  0  0  0  0  0  0  0  0  0
    3.7352   -7.9685    0.0000 H   0  0  0  0  0  0  0  0  0  0  0  0
    4.5598   -6.3860    0.0000 H   0  0  0  0  0  0  0  0  0  0  0  0
   12.5872   -4.0362    0.0000 H   0  0  0  0  0  0  0  0  0  0  0  0
   15.1248   -1.3407    0.0000 H   0  0  0  0  0  0  0  0  0  0  0  0
   15.4014    0.1696    0.0000 H   0  0  0  0  0  0  0  0  0  0  0  0
   15.4681    0.7468    0.0000 H   0  0  0  0  0  0  0  0  0  0  0  0
   15.1861    2.0928    0.0000 H   0  0  0  0  0  0  0  0  0  0  0  0
   14.8718    2.7765    0.0000 H   0  0  0  0  0  0  0  0  0  0  0  0
   13.8634    3.9345    0.0000 H   0  0  0  0  0  0  0  0  0  0  0  0
   13.0730    4.7127    0.0000 H   0  0  0  0  0  0  0  0  0  0  0  0
   15.7074   -3.0011    0.0000 H   0  0  0  0  0  0  0  0  0  0  0  0
   16.2652   -1.4514    0.0000 H   0  0  0  0  0  0  0  0  0  0  0  0
   15.2986   -0.4142    0.0000 H   0  0  0  0  0  0  0  0  0  0  0  0
   16.2331   -2.4127    0.0000 H   0  0  0  0  0  0  0  0  0  0  0  0
   14.1100   -4.9118    0.0000 H   0  0  0  0  0  0  0  0  0  0  0  0
   16.0973   -7.8109    0.0000 H   0  0  0  0  0  0  0  0  0  0  0  0
   17.0081   -6.4545    0.0000 H   0  0  0  0  0  0  0  0  0  0  0  0
   13.5725   -5.7123    0.0000 H   0  0  0  0  0  0  0  0  0  0  0  0
   12.8037   -9.4080    0.0000 H   0  0  0  0  0  0  0  0  0  0  0  0
   14.4764  -10.0294    0.0000 H   0  0  0  0  0  0  0  0  0  0  0  0
   15.5598   -8.6114    0.0000 H   0  0  0  0  0  0  0  0  0  0  0  0
   11.9001   -8.5390    0.0000 H   0  0  0  0  0  0  0  0  0  0  0  0
   11.2138   -6.8918    0.0000 H   0  0  0  0  0  0  0  0  0  0  0  0
   12.7715   -5.7551    0.0000 H   0  0  0  0  0  0  0  0  0  0  0  0
  1  2  1  0
  2  3  1  0
  3  4  2  0
  4  5  1  0
  5  6  2  0
  6  7  1  0
  7  8  2  0
  7  9  1  0
  9 10  1  0
 10 11  1  0
 11 12  2  0
  9 13  1  0
 13 14  1  0
 14 15  2  0
 15 16  1  0
 16 17  2  0
 17 18  1  0
 16 19  1  0
 14 20  1  0
 20 21  1  0
 21 22  2  0
 22 23  1  0
 23 24  2  0
 24 25  1  0
 25 26  2  0
 25 27  1  0
  1 28  2  0
  1 29  1  0
 29 30  1  0
 30 31  1  0
 31 32  1  0
 32 33  2  0
 32 34  1  0
 34 35  1  0
 35 36  1  0
 36 37  1  0
 37 38  2  0
 38 39  1  0
 39 40  2  0
 40 41  1  0
 41 42  2  0
 35 43  1  0
 43 44  2  0
 43 45  1  0
 45 46  1  0
 46 47  1  0
 47 48  1  0
 48 49  1  0
 49 50  1  0
 46 51  1  0
 51 52  2  0
 51 53  1  0
 54 53  1  1
 54 55  1  0
 55 56  1  0
 56 57  1  0
 57 58  1  0
 54 59  1  0
 54 60  1  0
 60 61  2  0
 60 62  1  0
 62 63  1  0
 63 64  1  0
 64 65  1  0
 65 66  2  0
 66 67  1  0
 67 68  2  0
 68 69  1  0
 68 70  1  0
 70 71  2  0
 63 72  1  0
 72 73  2  0
 72 74  1  0
 74 75  1  0
 75 76  1  0
 76 77  1  0
 77 78  2  0
 78 79  1  0
 79 80  1  0
 80 81  1  0
 81 82  2  0
 82 83  1  0
 83 84  2  0
 84 85  1  0
 75 86  1  0
 86 87  2  0
 86 88  1  0
 88 89  1  0
 89 90  1  0
 90 91  1  0
 91 92  1  0
 92 93  1  0
 93 94  1  0
 89 95  1  0
 95 96  2  0
 95 97  1  0
 97 98  1  0
 98 99  1  0
 99100  1  0
100101  1  0
101102  1  0
 98103  1  0
 98104  1  1
104105  2  0
104106  1  0
106107  1  0
107108  1  0
108109  1  0
109110  1  0
109111  1  0
107112  1  0
112113  2  0
112114  1  0
  8  3  1  0
 42 37  1  0
 71 65  1  0
 85 77  1  0
 11  6  1  0
 58 80  2  0
102 85  2  0
 18 13  2  0
 22  9  1  0
 26 21  1  0
  2115  1  0
  4116  1  0
  5117  1  0
  8118  1  0
 15119  1  0
 17120  1  0
 18121  1  0
 19122  1  0
 23123  1  0
 24124  1  0
 26125  1  0
 27126  1  0
 29127  1  0
 30128  1  0
 30129  1  0
 31130  1  0
 31131  1  0
 34132  1  0
 35133  1  1
 36134  1  0
 36135  1  0
 38136  1  0
 39137  1  0
 40138  1  0
 41139  1  0
 42140  1  0
 45141  1  0
 46142  1  1
 47143  1  0
 47144  1  0
 48145  1  0
 48146  1  0
 50147  1  0
 50148  1  0
 50149  1  0
 53150  1  0
 55151  1  0
 55152  1  0
 56153  1  0
 56154  1  0
 57155  1  0
 57156  1  0
 58157  1  0
 59158  1  0
 59159  1  0
 59160  1  0
 62161  1  0
 63162  1  6
 64163  1  0
 64164  1  0
 66165  1  0
 67166  1  0
 69167  1  0
 70168  1  0
 71169  1  0
 74170  1  0
 75171  1  1
 76172  1  0
 76173  1  0
 78174  1  0
 79175  1  0
 81176  1  0
 82177  1  0
 83178  1  0
 84179  1  0
 88180  1  0
 89181  1  6
 90182  1  0
 90183  1  0
 91184  1  0
 91185  1  0
 92186  1  0
 92187  1  0
 93188  1  0
 93189  1  0
 94190  1  0
 94191  1  0
 94192  1  0
 97193  1  0
 99194  1  0
 99195  1  0
100196  1  0
100197  1  0
101198  1  0
101199  1  0
102200  1  0
103201  1  0
103202  1  0
103203  1  0
106204  1  0
107205  1  6
108206  1  0
108207  1  0
109208  1  0
110209  1  0
110210  1  0
110211  1  0
111212  1  0
111213  1  0
111214  1  0
M  CHG  2  94   1 114  -1
M  END
