
     RDKit          2D

403410  0  0  0  0  0  0  0  0999 V2000
  -23.6317   -6.1554    0.0000 C   0  0  0  0  0  0  0  0  0  0  0  0
  -23.3559   -7.6299    0.0000 N   0  0  0  0  0  0  0  0  0  0  0  0
  -24.4949   -8.6059    0.0000 C   0  0  0  0  0  0  0  0  0  0  0  0
  -25.9097   -8.1075    0.0000 C   0  0  0  0  0  0  0  0  0  0  0  0
  -27.0487   -9.0835    0.0000 C   0  0  0  0  0  0  0  0  0  0  0  0
  -26.7730  -10.5579    0.0000 C   0  0  0  0  0  0  0  0  0  0  0  0
  -25.3582  -11.0564    0.0000 C   0  0  0  0  0  0  0  0  0  0  0  0
  -24.2192  -10.0803    0.0000 C   0  0  0  0  0  0  0  0  0  0  0  0
  -25.3951  -12.5559    0.0000 C   0  0  0  0  0  0  0  0  0  0  0  0
  -26.8326  -12.9843    0.0000 O   0  0  0  0  0  0  0  0  0  0  0  0
  -27.6842  -11.7494    0.0000 C   0  0  0  0  0  0  0  0  0  0  0  0
  -29.1838  -11.7126    0.0000 O   0  0  0  0  0  0  0  0  0  0  0  0
  -25.5884  -14.0434    0.0000 C   0  0  0  0  0  0  0  0  0  0  0  0
  -24.3969  -14.9546    0.0000 C   0  0  0  0  0  0  0  0  0  0  0  0
  -24.5903  -16.4421    0.0000 C   0  0  0  0  0  0  0  0  0  0  0  0
  -25.9752  -17.0183    0.0000 C   0  0  0  0  0  0  0  0  0  0  0  0
  -27.1667  -16.1071    0.0000 C   0  0  0  0  0  0  0  0  0  0  0  0
  -26.9733  -14.6197    0.0000 C   0  0  0  0  0  0  0  0  0  0  0  0
  -26.1686  -18.5058    0.0000 O   0  0  0  0  0  0  0  0  0  0  0  0
  -23.0120  -14.3783    0.0000 O   0  0  0  0  0  0  0  0  0  0  0  0
  -22.8187  -12.8908    0.0000 C   0  0  0  0  0  0  0  0  0  0  0  0
  -24.0102  -11.9796    0.0000 C   0  0  0  0  0  0  0  0  0  0  0  0
  -23.2608  -10.9174    0.0000 C   0  0  0  0  0  0  0  0  0  0  0  0
  -22.5221  -10.6100    0.0000 C   0  0  0  0  0  0  0  0  0  0  0  0
  -21.8867  -11.0960    0.0000 C   0  0  0  0  0  0  0  0  0  0  0  0
  -21.9898  -11.8893    0.0000 C   0  0  0  0  0  0  0  0  0  0  0  0
  -19.8555  -10.2508    0.0000 O   0  0  0  0  0  0  0  0  0  0  0  0
  -25.0464   -5.6570    0.0000 S   0  0  0  0  0  0  0  0  0  0  0  0
  -22.4926   -5.1794    0.0000 N   0  0  0  0  0  0  0  0  0  0  0  0
  -22.7684   -3.7050    0.0000 C   0  0  0  0  0  0  0  0  0  0  0  0
  -21.6293   -2.7290    0.0000 C   0  0  0  0  0  0  0  0  0  0  0  0
  -21.9051   -1.2545    0.0000 C   0  0  0  0  0  0  0  0  0  0  0  0
  -22.6836   -1.0833    0.0000 O   0  0  0  0  0  0  0  0  0  0  0  0
  -20.7661   -0.2785    0.0000 N   0  0  0  0  0  0  0  0  0  0  0  0
  -21.0418    1.1959    0.0000 C   0  0  0  0  0  0  0  0  0  0  0  0
  -22.4460    0.6683    0.0000 C   0  0  0  0  0  0  0  0  0  0  0  0
  -23.9459    0.6528    0.0000 O   0  0  0  0  0  0  0  0  0  0  0  0
  -22.8697   -0.7706    0.0000 C   0  0  0  0  0  0  0  0  0  0  0  0
  -20.7966    2.6758    0.0000 C   0  0  0  0  0  0  0  0  0  0  0  0
  -22.1516    3.3193    0.0000 O   0  0  0  0  0  0  0  0  0  0  0  0
  -19.3925    3.2033    0.0000 N   0  0  0  0  0  0  0  0  0  0  0  0
  -19.1473    4.6832    0.0000 C   0  0  0  0  0  0  0  0  0  0  0  0
  -20.6472    4.6677    0.0000 C   0  0  0  0  0  0  0  0  0  0  0  0
  -21.3837    3.3609    0.0000 C   0  0  0  0  0  0  0  0  0  0  0  0
  -22.8837    3.3454    0.0000 C   0  0  0  0  0  0  0  0  0  0  0  0
  -23.6202    2.0387    0.0000 N   0  0  0  0  0  0  0  0  0  0  0  0
  -25.1201    2.0232    0.0000 C   0  0  0  0  0  0  0  0  0  0  0  0
  -25.8566    0.7164    0.0000 N   0  0  0  0  0  0  0  0  0  0  0  0
  -25.8835    3.3144    0.0000 N   0  0  0  0  0  0  0  0  0  0  0  0
  -18.4108    5.9899    0.0000 C   0  0  0  0  0  0  0  0  0  0  0  0
  -19.4639    7.0580    0.0000 O   0  0  0  0  0  0  0  0  0  0  0  0
  -16.9109    6.0054    0.0000 N   0  0  0  0  0  0  0  0  0  0  0  0
  -16.1743    7.3122    0.0000 C   0  0  0  0  0  0  0  0  0  0  0  0
  -17.5891    7.8106    0.0000 C   0  0  0  0  0  0  0  0  0  0  0  0
  -18.7281    6.8346    0.0000 C   0  0  0  0  0  0  0  0  0  0  0  0
  -20.1429    7.3330    0.0000 C   0  0  0  0  0  0  0  0  0  0  0  0
  -21.3924    6.5031    0.0000 N   0  0  0  0  0  0  0  0  0  0  0  0
  -20.4187    8.8074    0.0000 O   0  0  0  0  0  0  0  0  0  0  0  0
  -15.0353    8.2882    0.0000 C   0  0  0  0  0  0  0  0  0  0  0  0
  -15.4887    9.7180    0.0000 O   0  0  0  0  0  0  0  0  0  0  0  0
  -13.6205    7.7898    0.0000 N   0  0  0  0  0  0  0  0  0  0  0  0
  -12.4815    8.7658    0.0000 C   0  0  0  0  0  0  0  0  0  0  0  0
  -13.7479    9.5696    0.0000 C   0  0  0  0  0  0  0  0  0  0  0  0
  -11.0774    9.2934    0.0000 C   0  0  0  0  0  0  0  0  0  0  0  0
  -11.1976   10.7885    0.0000 O   0  0  0  0  0  0  0  0  0  0  0  0
   -9.9184    8.3411    0.0000 N   0  0  0  0  0  0  0  0  0  0  0  0
   -8.5142    8.8687    0.0000 C   0  0  0  0  0  0  0  0  0  0  0  0
   -9.2776   10.1599    0.0000 C   0  0  0  0  0  0  0  0  0  0  0  0
  -10.7775   10.1444    0.0000 C   0  0  0  0  0  0  0  0  0  0  0  0
  -11.5409   11.4356    0.0000 C   0  0  0  0  0  0  0  0  0  0  0  0
  -13.0409   11.4201    0.0000 N   0  0  0  0  0  0  0  0  0  0  0  0
  -13.8043   12.7113    0.0000 C   0  0  0  0  0  0  0  0  0  0  0  0
  -15.3042   12.6958    0.0000 N   0  0  0  0  0  0  0  0  0  0  0  0
  -13.0678   14.0180    0.0000 N   0  0  0  0  0  0  0  0  0  0  0  0
   -7.0143    8.8842    0.0000 C   0  0  0  0  0  0  0  0  0  0  0  0
   -6.6159   10.3304    0.0000 O   0  0  0  0  0  0  0  0  0  0  0  0
   -6.2509    7.5930    0.0000 N   0  0  0  0  0  0  0  0  0  0  0  0
   -4.7510    7.6086    0.0000 C   0  0  0  0  0  0  0  0  0  0  0  0
   -5.0267    9.0830    0.0000 C   0  0  0  0  0  0  0  0  0  0  0  0
   -6.4415    9.5814    0.0000 C   0  0  0  0  0  0  0  0  0  0  0  0
   -6.7172   11.0558    0.0000 C   0  0  0  0  0  0  0  0  0  0  0  0
   -8.1320   11.5543    0.0000 N   0  0  0  0  0  0  0  0  0  0  0  0
   -8.4078   13.0287    0.0000 C   0  0  0  0  0  0  0  0  0  0  0  0
   -9.8225   13.5271    0.0000 N   0  0  0  0  0  0  0  0  0  0  0  0
   -7.2687   14.0047    0.0000 N   0  0  0  0  0  0  0  0  0  0  0  0
   -3.3362    7.1101    0.0000 C   0  0  0  0  0  0  0  0  0  0  0  0
   -2.4672    8.3328    0.0000 O   0  0  0  0  0  0  0  0  0  0  0  0
   -3.0605    5.6357    0.0000 N   0  0  0  0  0  0  0  0  0  0  0  0
   -1.6457    5.1373    0.0000 C   0  0  0  0  0  0  0  0  0  0  0  0
   -1.4005    6.6171    0.0000 C   0  0  0  0  0  0  0  0  0  0  0  0
   -2.5595    7.5693    0.0000 C   0  0  0  0  0  0  0  0  0  0  0  0
   -2.3143    9.0492    0.0000 N   0  0  0  0  0  0  0  0  0  0  0  0
   -4.0496    7.3972    0.0000 O   0  0  0  0  0  0  0  0  0  0  0  0
   -0.4867    4.1850    0.0000 C   0  0  0  0  0  0  0  0  0  0  0  0
    0.6350    5.1809    0.0000 O   0  0  0  0  0  0  0  0  0  0  0  0
   -0.7319    2.7052    0.0000 N   0  0  0  0  0  0  0  0  0  0  0  0
    0.4271    1.7530    0.0000 C   0  0  0  0  0  0  0  0  0  0  0  0
    0.7952    3.2071    0.0000 C   0  0  0  0  0  0  0  0  0  0  0  0
    1.5134    4.5240    0.0000 C   0  0  0  0  0  0  0  0  0  0  0  0
    2.5366    5.6209    0.0000 C   0  0  0  0  0  0  0  0  0  0  0  0
    3.8004    6.4289    0.0000 C   0  0  0  0  0  0  0  0  0  0  0  0
    5.2254    6.8972    0.0000 C   0  0  0  0  0  0  0  0  0  0  0  0
    6.7221    6.9964    0.0000 C   0  0  0  0  0  0  0  0  0  0  0  0
    8.1965    6.7203    0.0000 C   0  0  0  0  0  0  0  0  0  0  0  0
   -0.9280    1.1097    0.0000 C   0  0  0  0  0  0  0  0  0  0  0  0
    0.4321    0.2530    0.0000 C   0  0  0  0  0  0  0  0  0  0  0  0
   -1.0554    0.0600    0.0000 O   0  0  0  0  0  0  0  0  0  0  0  0
    0.8101   -1.1986    0.0000 N   0  0  0  0  0  0  0  0  0  0  0  0
    1.5371   -2.5106    0.0000 C   0  0  0  0  0  0  0  0  0  0  0  0
    0.9896   -3.9072    0.0000 C   0  0  0  0  0  0  0  0  0  0  0  0
   -0.4935   -4.1313    0.0000 C   0  0  0  0  0  0  0  0  0  0  0  0
   -1.0410   -5.5278    0.0000 C   0  0  0  0  0  0  0  0  0  0  0  0
   -2.5242   -5.7519    0.0000 N   0  0  0  0  0  0  0  0  0  0  0  0
   -3.0717   -7.1484    0.0000 C   0  0  0  0  0  0  0  0  0  0  0  0
   -4.5548   -7.3726    0.0000 N   0  0  0  0  0  0  0  0  0  0  0  0
   -2.1360   -8.3208    0.0000 N   0  0  0  0  0  0  0  0  0  0  0  0
    2.5676   -3.6006    0.0000 C   0  0  0  0  0  0  0  0  0  0  0  0
    1.6154   -4.7596    0.0000 O   0  0  0  0  0  0  0  0  0  0  0  0
    3.8368   -4.4001    0.0000 N   0  0  0  0  0  0  0  0  0  0  0  0
    5.2649   -4.8588    0.0000 C   0  0  0  0  0  0  0  0  0  0  0  0
    5.8218   -6.2516    0.0000 C   0  0  0  0  0  0  0  0  0  0  0  0
    4.8941   -7.4303    0.0000 C   0  0  0  0  0  0  0  0  0  0  0  0
    5.4509   -8.8231    0.0000 C   0  0  0  0  0  0  0  0  0  0  0  0
    4.5232  -10.0018    0.0000 N   0  0  0  0  0  0  0  0  0  0  0  0
    5.0801  -11.3946    0.0000 C   0  0  0  0  0  0  0  0  0  0  0  0
    4.1523  -12.5732    0.0000 N   0  0  0  0  0  0  0  0  0  0  0  0
    6.5647  -11.6087    0.0000 N   0  0  0  0  0  0  0  0  0  0  0  0
    6.7623   -4.9480    0.0000 C   0  0  0  0  0  0  0  0  0  0  0  0
    6.8615   -6.4447    0.0000 O   0  0  0  0  0  0  0  0  0  0  0  0
    8.2348   -4.6619    0.0000 N   0  0  0  0  0  0  0  0  0  0  0  0
    9.5899   -4.0187    0.0000 C   0  0  0  0  0  0  0  0  0  0  0  0
   10.9492   -4.6528    0.0000 C   0  0  0  0  0  0  0  0  0  0  0  0
   11.0798   -6.1471    0.0000 C   0  0  0  0  0  0  0  0  0  0  0  0
   12.4392   -6.7812    0.0000 C   0  0  0  0  0  0  0  0  0  0  0  0
   12.5697   -8.2755    0.0000 N   0  0  0  0  0  0  0  0  0  0  0  0
   13.9291   -8.9096    0.0000 C   0  0  0  0  0  0  0  0  0  0  0  0
   14.5866  -10.2578    0.0000 N   0  0  0  0  0  0  0  0  0  0  0  0
   15.2536   -8.2056    0.0000 N   0  0  0  0  0  0  0  0  0  0  0  0
   10.7424   -3.0587    0.0000 C   0  0  0  0  0  0  0  0  0  0  0  0
   11.7064   -4.2079    0.0000 O   0  0  0  0  0  0  0  0  0  0  0  0
   11.6200   -1.8422    0.0000 N   0  0  0  0  0  0  0  0  0  0  0  0
   12.1675   -0.4457    0.0000 C   0  0  0  0  0  0  0  0  0  0  0  0
   12.3402    1.0443    0.0000 C   0  0  0  0  0  0  0  0  0  0  0  0
   13.0394    2.3714    0.0000 C   0  0  0  0  0  0  0  0  0  0  0  0
   11.5397    2.3442    0.0000 C   0  0  0  0  0  0  0  0  0  0  0  0
   10.3734    3.2875    0.0000 N   0  0  0  0  0  0  0  0  0  0  0  0
   10.0862    4.7597    0.0000 C   0  0  0  0  0  0  0  0  0  0  0  0
   10.8126    6.0721    0.0000 C   0  0  0  0  0  0  0  0  0  0  0  0
   12.2126    6.6106    0.0000 C   0  0  0  0  0  0  0  0  0  0  0  0
   13.6312    6.1231    0.0000 C   0  0  0  0  0  0  0  0  0  0  0  0
   14.4046    4.8379    0.0000 C   0  0  0  0  0  0  0  0  0  0  0  0
   14.1709    3.3562    0.0000 C   0  0  0  0  0  0  0  0  0  0  0  0
   12.5447   -1.8975    0.0000 C   0  0  0  0  0  0  0  0  0  0  0  0
   11.5057   -2.9794    0.0000 O   0  0  0  0  0  0  0  0  0  0  0  0
   13.4209   -3.1150    0.0000 N   0  0  0  0  0  0  0  0  0  0  0  0
   14.6778   -3.9337    0.0000 C   0  0  0  0  0  0  0  0  0  0  0  0
   14.9649   -5.4059    0.0000 C   0  0  0  0  0  0  0  0  0  0  0  0
   13.8335   -6.3908    0.0000 C   0  0  0  0  0  0  0  0  0  0  0  0
   14.1206   -7.8630    0.0000 C   0  0  0  0  0  0  0  0  0  0  0  0
   12.9892   -8.8478    0.0000 N   0  0  0  0  0  0  0  0  0  0  0  0
   13.2764  -10.3201    0.0000 C   0  0  0  0  0  0  0  0  0  0  0  0
   12.0333  -11.1596    0.0000 N   0  0  0  0  0  0  0  0  0  0  0  0
   14.5348  -11.1363    0.0000 N   0  0  0  0  0  0  0  0  0  0  0  0
   16.1455   -4.2431    0.0000 C   0  0  0  0  0  0  0  0  0  0  0  0
   16.1111   -5.7427    0.0000 O   0  0  0  0  0  0  0  0  0  0  0  0
   17.6259   -4.0014    0.0000 N   0  0  0  0  0  0  0  0  0  0  0  0
   18.9190   -3.2413    0.0000 C   0  0  0  0  0  0  0  0  0  0  0  0
   20.3650   -3.6405    0.0000 C   0  0  0  0  0  0  0  0  0  0  0  0
   20.7422   -5.0923    0.0000 C   0  0  0  0  0  0  0  0  0  0  0  0
   22.1881   -5.4915    0.0000 C   0  0  0  0  0  0  0  0  0  0  0  0
   22.5653   -6.9433    0.0000 O   0  0  0  0  0  0  0  0  0  0  0  0
   23.2568   -4.4389    0.0000 O   0  0  0  0  0  0  0  0  0  0  0  0
   19.8503   -2.0654    0.0000 C   0  0  0  0  0  0  0  0  0  0  0  0
   21.1773   -2.7646    0.0000 O   0  0  0  0  0  0  0  0  0  0  0  0
   20.2938   -0.6324    0.0000 N   0  0  0  0  0  0  0  0  0  0  0  0
   20.1897    0.8640    0.0000 C   0  0  0  0  0  0  0  0  0  0  0  0
   19.5522    2.2217    0.0000 C   0  0  0  0  0  0  0  0  0  0  0  0
   18.4672    3.2575    0.0000 C   0  0  0  0  0  0  0  0  0  0  0  0
   17.0813    3.8313    0.0000 C   0  0  0  0  0  0  0  0  0  0  0  0
   15.5817    3.8658    0.0000 C   0  0  0  0  0  0  0  0  0  0  0  0
   21.6083    0.3765    0.0000 C   0  0  0  0  0  0  0  0  0  0  0  0
   21.1916    1.9803    0.0000 C   0  0  0  0  0  0  0  0  0  0  0  0
   20.9030    3.4523    0.0000 O   0  0  0  0  0  0  0  0  0  0  0  0
   22.6593    1.6709    0.0000 N   0  0  0  0  0  0  0  0  0  0  0  0
   23.6612    2.7873    0.0000 C   0  0  0  0  0  0  0  0  0  0  0  0
   24.2208    4.1790    0.0000 C   0  0  0  0  0  0  0  0  0  0  0  0
   25.7058    4.3902    0.0000 C   0  0  0  0  0  0  0  0  0  0  0  0
   26.2654    5.7820    0.0000 C   0  0  0  0  0  0  0  0  0  0  0  0
   27.7136    6.1726    0.0000 N   0  0  0  0  0  0  0  0  0  0  0  0
   25.3399    6.9624    0.0000 O   0  0  0  0  0  0  0  0  0  0  0  0
   25.1289    2.4779    0.0000 C   0  0  0  0  0  0  0  0  0  0  0  0
   25.5948    1.0521    0.0000 O   0  0  0  0  0  0  0  0  0  0  0  0
   26.1307    3.5943    0.0000 N   0  0  0  0  0  0  0  0  0  0  0  0
   27.5985    3.2848    0.0000 C   0  0  0  0  0  0  0  0  0  0  0  0
   28.8719    2.4921    0.0000 C   0  0  0  0  0  0  0  0  0  0  0  0
   28.8220    0.9929    0.0000 C   0  0  0  0  0  0  0  0  0  0  0  0
   30.0954    0.2002    0.0000 C   0  0  0  0  0  0  0  0  0  0  0  0
   30.0456   -1.2990    0.0000 N   0  0  0  0  0  0  0  0  0  0  0  0
   31.3189   -2.0918    0.0000 C   0  0  0  0  0  0  0  0  0  0  0  0
   31.2691   -3.5910    0.0000 N   0  0  0  0  0  0  0  0  0  0  0  0
   32.6422   -1.3854    0.0000 N   0  0  0  0  0  0  0  0  0  0  0  0
   28.6003    4.4012    0.0000 C   0  0  0  0  0  0  0  0  0  0  0  0
   30.0948    4.2730    0.0000 O   0  0  0  0  0  0  0  0  0  0  0  0
   28.3117    5.8732    0.0000 O   0  0  0  0  0  0  0  0  0  0  0  0
  -21.8909   -7.9521    0.0000 H   0  0  0  0  0  0  0  0  0  0  0  0
  -26.1855   -6.6330    0.0000 H   0  0  0  0  0  0  0  0  0  0  0  0
  -28.4635   -8.5851    0.0000 H   0  0  0  0  0  0  0  0  0  0  0  0
  -22.7259  -10.2216    0.0000 H   0  0  0  0  0  0  0  0  0  0  0  0
  -23.3988  -17.3533    0.0000 H   0  0  0  0  0  0  0  0  0  0  0  0
  -28.5516  -16.6834    0.0000 H   0  0  0  0  0  0  0  0  0  0  0  0
  -28.1648  -13.7084    0.0000 H   0  0  0  0  0  0  0  0  0  0  0  0
  -27.5535  -19.0821    0.0000 H   0  0  0  0  0  0  0  0  0  0  0  0
  -25.0083   -9.5809    0.0000 H   0  0  0  0  0  0  0  0  0  0  0  0
  -22.0586   -8.4631    0.0000 H   0  0  0  0  0  0  0  0  0  0  0  0
  -20.2423  -13.2258    0.0000 H   0  0  0  0  0  0  0  0  0  0  0  0
  -18.6640  -11.1620    0.0000 H   0  0  0  0  0  0  0  0  0  0  0  0
  -21.0779   -5.6778    0.0000 H   0  0  0  0  0  0  0  0  0  0  0  0
  -24.1725   -4.2326    0.0000 H   0  0  0  0  0  0  0  0  0  0  0  0
  -23.5318   -2.4138    0.0000 H   0  0  0  0  0  0  0  0  0  0  0  0
  -20.8659   -4.0202    0.0000 H   0  0  0  0  0  0  0  0  0  0  0  0
  -20.2252   -2.2014    0.0000 H   0  0  0  0  0  0  0  0  0  0  0  0
  -19.3513   -0.7769    0.0000 H   0  0  0  0  0  0  0  0  0  0  0  0
  -19.5419    1.2115    0.0000 H   0  0  0  0  0  0  0  0  0  0  0  0
  -23.0703    2.0322    0.0000 H   0  0  0  0  0  0  0  0  0  0  0  0
  -24.6824   -0.6539    0.0000 H   0  0  0  0  0  0  0  0  0  0  0  0
  -24.0168   -1.4842    0.0000 H   0  0  0  0  0  0  0  0  0  0  0  0
  -22.4154   -2.2859    0.0000 H   0  0  0  0  0  0  0  0  0  0  0  0
  -21.2472   -1.2014    0.0000 H   0  0  0  0  0  0  0  0  0  0  0  0
  -18.2335    2.2511    0.0000 H   0  0  0  0  0  0  0  0  0  0  0  0
  -17.7325    4.1848    0.0000 H   0  0  0  0  0  0  0  0  0  0  0  0
  -21.9907    5.3348    0.0000 H   0  0  0  0  0  0  0  0  0  0  0  0
  -20.5843    6.1663    0.0000 H   0  0  0  0  0  0  0  0  0  0  0  0
  -21.6289    1.8811    0.0000 H   0  0  0  0  0  0  0  0  0  0  0  0
  -20.1316    2.5350    0.0000 H   0  0  0  0  0  0  0  0  0  0  0  0
  -24.2984    3.8438    0.0000 H   0  0  0  0  0  0  0  0  0  0  0  0
  -22.8207    4.8441    0.0000 H   0  0  0  0  0  0  0  0  0  0  0  0
  -23.1919    0.6011    0.0000 H   0  0  0  0  0  0  0  0  0  0  0  0
  -27.3565    0.7009    0.0000 H   0  0  0  0  0  0  0  0  0  0  0  0
  -25.2563   -0.6582    0.0000 H   0  0  0  0  0  0  0  0  0  0  0  0
  -27.3834    3.2988    0.0000 H   0  0  0  0  0  0  0  0  0  0  0  0
  -25.1470    4.6211    0.0000 H   0  0  0  0  0  0  0  0  0  0  0  0
  -16.1475    4.7142    0.0000 H   0  0  0  0  0  0  0  0  0  0  0  0
  -15.0154    6.3599    0.0000 H   0  0  0  0  0  0  0  0  0  0  0  0
  -18.7481    8.7628    0.0000 H   0  0  0  0  0  0  0  0  0  0  0  0
  -16.8526    9.1173    0.0000 H   0  0  0  0  0  0  0  0  0  0  0  0
  -19.4647    5.5278    0.0000 H   0  0  0  0  0  0  0  0  0  0  0  0
  -17.8340    5.6302    0.0000 H   0  0  0  0  0  0  0  0  0  0  0  0
  -22.6967    6.8554    0.0000 H   0  0  0  0  0  0  0  0  0  0  0  0
  -21.4098    4.8372    0.0000 H   0  0  0  0  0  0  0  0  0  0  0  0
  -13.3448    6.3153    0.0000 H   0  0  0  0  0  0  0  0  0  0  0  0
  -11.7181    7.4746    0.0000 H   0  0  0  0  0  0  0  0  0  0  0  0
  -15.0985    9.3655    0.0000 H   0  0  0  0  0  0  0  0  0  0  0  0
  -14.4039   11.0092    0.0000 H   0  0  0  0  0  0  0  0  0  0  0  0
  -12.7715   10.9407    0.0000 H   0  0  0  0  0  0  0  0  0  0  0  0
  -10.1636    6.8613    0.0000 H   0  0  0  0  0  0  0  0  0  0  0  0
   -8.2385    7.3943    0.0000 H   0  0  0  0  0  0  0  0  0  0  0  0
   -9.3716   11.6570    0.0000 H   0  0  0  0  0  0  0  0  0  0  0  0
   -8.0429   11.0116    0.0000 H   0  0  0  0  0  0  0  0  0  0  0  0
  -12.1817    9.6168    0.0000 H   0  0  0  0  0  0  0  0  0  0  0  0
  -10.8668    8.6471    0.0000 H   0  0  0  0  0  0  0  0  0  0  0  0
  -11.8167   12.9100    0.0000 H   0  0  0  0  0  0  0  0  0  0  0  0
  -10.2116   12.1304    0.0000 H   0  0  0  0  0  0  0  0  0  0  0  0
  -13.9312   10.2129    0.0000 H   0  0  0  0  0  0  0  0  0  0  0  0
  -16.0676   13.9870    0.0000 H   0  0  0  0  0  0  0  0  0  0  0  0
  -16.0407   11.3890    0.0000 H   0  0  0  0  0  0  0  0  0  0  0  0
  -13.8312   15.3092    0.0000 H   0  0  0  0  0  0  0  0  0  0  0  0
  -11.5678   14.0335    0.0000 H   0  0  0  0  0  0  0  0  0  0  0  0
   -6.9874    6.2863    0.0000 H   0  0  0  0  0  0  0  0  0  0  0  0
   -4.9962    6.1287    0.0000 H   0  0  0  0  0  0  0  0  0  0  0  0
   -4.6030   10.5219    0.0000 H   0  0  0  0  0  0  0  0  0  0  0  0
   -3.5399    9.2812    0.0000 H   0  0  0  0  0  0  0  0  0  0  0  0
   -7.9414    9.5659    0.0000 H   0  0  0  0  0  0  0  0  0  0  0  0
   -7.0375    8.2049    0.0000 H   0  0  0  0  0  0  0  0  0  0  0  0
   -6.4721   12.5357    0.0000 H   0  0  0  0  0  0  0  0  0  0  0  0
   -5.2304   11.2541    0.0000 H   0  0  0  0  0  0  0  0  0  0  0  0
   -9.4734   10.8829    0.0000 H   0  0  0  0  0  0  0  0  0  0  0  0
  -10.0983   15.0016    0.0000 H   0  0  0  0  0  0  0  0  0  0  0  0
  -10.9616   12.5511    0.0000 H   0  0  0  0  0  0  0  0  0  0  0  0
   -7.5445   15.4792    0.0000 H   0  0  0  0  0  0  0  0  0  0  0  0
   -5.8540   13.5063    0.0000 H   0  0  0  0  0  0  0  0  0  0  0  0
   -4.1995    4.6597    0.0000 H   0  0  0  0  0  0  0  0  0  0  0  0
   -2.3822    3.8306    0.0000 H   0  0  0  0  0  0  0  0  0  0  0  0
   -0.6640    7.9238    0.0000 H   0  0  0  0  0  0  0  0  0  0  0  0
    0.0143    6.1187    0.0000 H   0  0  0  0  0  0  0  0  0  0  0  0
   -3.3486   10.1356    0.0000 H   0  0  0  0  0  0  0  0  0  0  0  0
   -0.9102    9.5768    0.0000 H   0  0  0  0  0  0  0  0  0  0  0  0
   -2.1899    2.3527    0.0000 H   0  0  0  0  0  0  0  0  0  0  0  0
   -0.7027    3.2859    0.0000 H   0  0  0  0  0  0  0  0  0  0  0  0
    0.0636    4.5166    0.0000 H   0  0  0  0  0  0  0  0  0  0  0  0
    0.2333    5.3058    0.0000 H   0  0  0  0  0  0  0  0  0  0  0  0
    0.7909    5.8385    0.0000 H   0  0  0  0  0  0  0  0  0  0  0  0
    1.1750    6.2503    0.0000 H   0  0  0  0  0  0  0  0  0  0  0  0
    2.1637    7.0738    0.0000 H   0  0  0  0  0  0  0  0  0  0  0  0
    2.6381    7.3771    0.0000 H   0  0  0  0  0  0  0  0  0  0  0  0
    3.8005    7.9289    0.0000 H   0  0  0  0  0  0  0  0  0  0  0  0
    4.3354    8.1047    0.0000 H   0  0  0  0  0  0  0  0  0  0  0  0
    5.5985    8.3500    0.0000 H   0  0  0  0  0  0  0  0  0  0  0  0
    6.1604    8.3873    0.0000 H   0  0  0  0  0  0  0  0  0  0  0  0
    7.5997    8.2129    0.0000 H   0  0  0  0  0  0  0  0  0  0  0  0
    8.6552    8.1485    0.0000 H   0  0  0  0  0  0  0  0  0  0  0  0
   -2.2572    1.8048    0.0000 H   0  0  0  0  0  0  0  0  0  0  0  0
   -1.9813    0.0418    0.0000 H   0  0  0  0  0  0  0  0  0  0  0  0
   -0.3809   -0.2869    0.0000 H   0  0  0  0  0  0  0  0  0  0  0  0
   -0.6402   -1.5816    0.0000 H   0  0  0  0  0  0  0  0  0  0  0  0
    0.0395   -2.4267    0.0000 H   0  0  0  0  0  0  0  0  0  0  0  0
    1.1359   -5.4000    0.0000 H   0  0  0  0  0  0  0  0  0  0  0  0
    2.3445   -4.5508    0.0000 H   0  0  0  0  0  0  0  0  0  0  0  0
   -1.9639   -3.8346    0.0000 H   0  0  0  0  0  0  0  0  0  0  0  0
   -0.8206   -2.6674    0.0000 H   0  0  0  0  0  0  0  0  0  0  0  0
   -1.0779   -7.0273    0.0000 H   0  0  0  0  0  0  0  0  0  0  0  0
    0.3822   -6.0015    0.0000 H   0  0  0  0  0  0  0  0  0  0  0  0
   -3.4599   -4.5795    0.0000 H   0  0  0  0  0  0  0  0  0  0  0  0
   -5.1023   -8.7691    0.0000 H   0  0  0  0  0  0  0  0  0  0  0  0
   -5.4905   -6.2002    0.0000 H   0  0  0  0  0  0  0  0  0  0  0  0
   -2.6835   -9.7173    0.0000 H   0  0  0  0  0  0  0  0  0  0  0  0
   -0.6528   -8.0967    0.0000 H   0  0  0  0  0  0  0  0  0  0  0  0
    3.0417   -5.6721    0.0000 H   0  0  0  0  0  0  0  0  0  0  0  0
    4.1157   -5.8228    0.0000 H   0  0  0  0  0  0  0  0  0  0  0  0
    6.9504   -7.2398    0.0000 H   0  0  0  0  0  0  0  0  0  0  0  0
    7.2501   -5.7933    0.0000 H   0  0  0  0  0  0  0  0  0  0  0  0
    3.6191   -8.2206    0.0000 H   0  0  0  0  0  0  0  0  0  0  0  0
    3.6535   -6.5871    0.0000 H   0  0  0  0  0  0  0  0  0  0  0  0
    6.4506   -9.9414    0.0000 H   0  0  0  0  0  0  0  0  0  0  0  0
    6.8127   -8.1941    0.0000 H   0  0  0  0  0  0  0  0  0  0  0  0
    3.0385   -9.7876    0.0000 H   0  0  0  0  0  0  0  0  0  0  0  0
    4.7092  -13.9660    0.0000 H   0  0  0  0  0  0  0  0  0  0  0  0
    2.6677  -12.3591    0.0000 H   0  0  0  0  0  0  0  0  0  0  0  0
    7.1216  -13.0015    0.0000 H   0  0  0  0  0  0  0  0  0  0  0  0
    7.4925  -10.4300    0.0000 H   0  0  0  0  0  0  0  0  0  0  0  0
    8.5259   -6.1334    0.0000 H   0  0  0  0  0  0  0  0  0  0  0  0
    9.4120   -5.5081    0.0000 H   0  0  0  0  0  0  0  0  0  0  0  0
   12.4483   -4.6006    0.0000 H   0  0  0  0  0  0  0  0  0  0  0  0
   11.5114   -3.2621    0.0000 H   0  0  0  0  0  0  0  0  0  0  0  0
   10.6914   -7.5960    0.0000 H   0  0  0  0  0  0  0  0  0  0  0  0
    9.5982   -6.3817    0.0000 H   0  0  0  0  0  0  0  0  0  0  0  0
   13.8574   -7.2698    0.0000 H   0  0  0  0  0  0  0  0  0  0  0  0
   12.6481   -5.2958    0.0000 H   0  0  0  0  0  0  0  0  0  0  0  0
   11.2452   -8.9795    0.0000 H   0  0  0  0  0  0  0  0  0  0  0  0
   15.5079  -10.9307    0.0000 H   0  0  0  0  0  0  0  0  0  0  0  0
   12.9666  -11.4707    0.0000 H   0  0  0  0  0  0  0  0  0  0  0  0
   16.5173   -8.6835    0.0000 H   0  0  0  0  0  0  0  0  0  0  0  0
   15.2105   -6.5503    0.0000 H   0  0  0  0  0  0  0  0  0  0  0  0
   12.4454   -3.0947    0.0000 H   0  0  0  0  0  0  0  0  0  0  0  0
   10.6711   -0.5497    0.0000 H   0  0  0  0  0  0  0  0  0  0  0  0
   10.9628    0.4502    0.0000 H   0  0  0  0  0  0  0  0  0  0  0  0
   11.1379    1.9413    0.0000 H   0  0  0  0  0  0  0  0  0  0  0  0
   10.8829    0.9956    0.0000 H   0  0  0  0  0  0  0  0  0  0  0  0
    9.0881    2.5141    0.0000 H   0  0  0  0  0  0  0  0  0  0  0  0
    9.8278    7.2036    0.0000 H   0  0  0  0  0  0  0  0  0  0  0  0
   12.1855    8.1103    0.0000 H   0  0  0  0  0  0  0  0  0  0  0  0
   14.5744    7.2894    0.0000 H   0  0  0  0  0  0  0  0  0  0  0  0
   15.7636    5.4727    0.0000 H   0  0  0  0  0  0  0  0  0  0  0  0
   12.6785   -4.4183    0.0000 H   0  0  0  0  0  0  0  0  0  0  0  0
   13.2680   -4.4461    0.0000 H   0  0  0  0  0  0  0  0  0  0  0  0
   16.0263   -6.4659    0.0000 H   0  0  0  0  0  0  0  0  0  0  0  0
   16.4536   -5.2223    0.0000 H   0  0  0  0  0  0  0  0  0  0  0  0
   12.6054   -7.2520    0.0000 H   0  0  0  0  0  0  0  0  0  0  0  0
   13.2226   -5.0208    0.0000 H   0  0  0  0  0  0  0  0  0  0  0  0
   14.8940   -9.1483    0.0000 H   0  0  0  0  0  0  0  0  0  0  0  0
   15.5207   -7.3246    0.0000 H   0  0  0  0  0  0  0  0  0  0  0  0
   11.5218   -8.5369    0.0000 H   0  0  0  0  0  0  0  0  0  0  0  0
   12.4321  -12.7772    0.0000 H   0  0  0  0  0  0  0  0  0  0  0  0
   10.7263  -10.8174    0.0000 H   0  0  0  0  0  0  0  0  0  0  0  0
   14.9821  -12.2798    0.0000 H   0  0  0  0  0  0  0  0  0  0  0  0
   15.8264   -9.8227    0.0000 H   0  0  0  0  0  0  0  0  0  0  0  0
   18.1355   -5.4122    0.0000 H   0  0  0  0  0  0  0  0  0  0  0  0
   18.9323   -4.7412    0.0000 H   0  0  0  0  0  0  0  0  0  0  0  0
   21.8602   -3.5211    0.0000 H   0  0  0  0  0  0  0  0  0  0  0  0
   20.8641   -2.2260    0.0000 H   0  0  0  0  0  0  0  0  0  0  0  0
   20.6001   -6.5855    0.0000 H   0  0  0  0  0  0  0  0  0  0  0  0
   19.2727   -5.3931    0.0000 H   0  0  0  0  0  0  0  0  0  0  0  0
   21.7838   -0.8051    0.0000 H   0  0  0  0  0  0  0  0  0  0  0  0
   20.0831    3.6246    0.0000 H   0  0  0  0  0  0  0  0  0  0  0  0
   20.9925    2.6406    0.0000 H   0  0  0  0  0  0  0  0  0  0  0  0
   18.6383    4.7477    0.0000 H   0  0  0  0  0  0  0  0  0  0  0  0
   19.7610    4.0163    0.0000 H   0  0  0  0  0  0  0  0  0  0  0  0
   16.7026    5.2827    0.0000 H   0  0  0  0  0  0  0  0  0  0  0  0
   18.0136    5.0063    0.0000 H   0  0  0  0  0  0  0  0  0  0  0  0
   15.5222    5.3646    0.0000 H   0  0  0  0  0  0  0  0  0  0  0  0
   22.9444    1.0583    0.0000 H   0  0  0  0  0  0  0  0  0  0  0  0
   22.6510   -0.7019    0.0000 H   0  0  0  0  0  0  0  0  0  0  0  0
   21.2211   -1.0726    0.0000 H   0  0  0  0  0  0  0  0  0  0  0  0
   23.2955    0.3125    0.0000 H   0  0  0  0  0  0  0  0  0  0  0  0
   22.3878    3.5801    0.0000 H   0  0  0  0  0  0  0  0  0  0  0  0
   24.2706    5.6782    0.0000 H   0  0  0  0  0  0  0  0  0  0  0  0
   22.7530    4.4884    0.0000 H   0  0  0  0  0  0  0  0  0  0  0  0
   27.1735    4.0808    0.0000 H   0  0  0  0  0  0  0  0  0  0  0  0
   26.3657    3.0432    0.0000 H   0  0  0  0  0  0  0  0  0  0  0  0
   28.3100    7.3849    0.0000 H   0  0  0  0  0  0  0  0  0  0  0  0
   28.9764    5.0860    0.0000 H   0  0  0  0  0  0  0  0  0  0  0  0
   26.0237    5.0904    0.0000 H   0  0  0  0  0  0  0  0  0  0  0  0
   26.8734    1.9717    0.0000 H   0  0  0  0  0  0  0  0  0  0  0  0
   30.3664    2.3639    0.0000 H   0  0  0  0  0  0  0  0  0  0  0  0
   29.5969    3.8052    0.0000 H   0  0  0  0  0  0  0  0  0  0  0  0
   28.2624   -0.3988    0.0000 H   0  0  0  0  0  0  0  0  0  0  0  0
   27.3275    1.1211    0.0000 H   0  0  0  0  0  0  0  0  0  0  0  0
   31.5631   -0.1093    0.0000 H   0  0  0  0  0  0  0  0  0  0  0  0
   30.8205    1.5133    0.0000 H   0  0  0  0  0  0  0  0  0  0  0  0
   28.7223   -2.0054    0.0000 H   0  0  0  0  0  0  0  0  0  0  0  0
   32.5425   -4.3837    0.0000 H   0  0  0  0  0  0  0  0  0  0  0  0
   29.9458   -4.2974    0.0000 H   0  0  0  0  0  0  0  0  0  0  0  0
   33.9156   -2.1781    0.0000 H   0  0  0  0  0  0  0  0  0  0  0  0
   32.6920    0.1138    0.0000 H   0  0  0  0  0  0  0  0  0  0  0  0
  1  2  1  0
  2  3  1  0
  3  4  2  0
  4  5  1  0
  5  6  2  0
  6  7  1  0
  7  8  2  0
  7  9  1  0
  9 10  1  0
 10 11  1  0
 11 12  2  0
  9 13  1  0
 13 14  1  0
 14 15  2  0
 15 16  1  0
 16 17  2  0
 17 18  1  0
 16 19  1  0
 14 20  1  0
 20 21  1  0
 21 22  2  0
 22 23  1  0
 23 24  2  0
 24 25  1  0
 25 26  2  0
 25 27  1  0
  1 28  2  0
  1 29  1  0
 29 30  1  0
 30 31  1  0
 31 32  1  0
 32 33  2  0
 32 34  1  0
 34 35  1  0
 35 36  1  0
 36 37  1  0
 36 38  1  0
 35 39  1  0
 39 40  2  0
 39 41  1  0
 41 42  1  0
 42 43  1  0
 43 44  1  0
 44 45  1  0
 45 46  1  0
 46 47  1  0
 47 48  2  3
 47 49  1  0
 42 50  1  0
 50 51  2  0
 50 52  1  0
 52 53  1  0
 53 54  1  0
 54 55  1  0
 55 56  1  0
 56 57  1  0
 56 58  2  0
 53 59  1  0
 59 60  2  0
 59 61  1  0
 61 62  1  0
 62 63  1  0
 62 64  1  0
 64 65  2  0
 64 66  1  0
 66 67  1  0
 67 68  1  0
 68 69  1  0
 69 70  1  0
 70 71  1  0
 71 72  1  0
 72 73  2  3
 72 74  1  0
 67 75  1  0
 75 76  2  0
 75 77  1  0
 77 78  1  0
 78 79  1  0
 79 80  1  0
 80 81  1  0
 81 82  1  0
 82 83  1  0
 83 84  2  3
 83 85  1  0
 78 86  1  0
 86 87  2  0
 86 88  1  0
 88 89  1  0
 89 90  1  0
 90 91  1  0
 91 92  1  0
 91 93  2  0
 89 94  1  0
 94 95  2  0
 94 96  1  0
 97 96  1  6
 97 98  1  0
 98 99  1  0
 99100  1  0
100101  1  0
101102  1  0
102103  1  0
103104  1  0
 97105  1  0
 97106  1  0
106107  2  0
106108  1  0
108109  1  0
109110  1  0
110111  1  0
111112  1  0
112113  1  0
113114  1  0
114115  2  3
114116  1  0
109117  1  0
117118  2  0
117119  1  0
119120  1  0
120121  1  0
121122  1  0
122123  1  0
123124  1  0
124125  1  0
125126  2  3
125127  1  0
120128  1  0
128129  2  0
128130  1  0
130131  1  0
131132  1  0
132133  1  0
133134  1  0
134135  1  0
135136  1  0
136137  2  3
136138  1  0
131139  1  0
139140  2  0
139141  1  0
141142  1  0
142143  1  0
143144  1  0
144145  2  0
145146  1  0
146147  1  0
147148  1  0
148149  2  0
149150  1  0
150151  2  0
151152  1  0
142153  1  0
153154  2  0
153155  1  0
155156  1  0
156157  1  0
157158  1  0
158159  1  0
159160  1  0
160161  1  0
161162  2  3
161163  1  0
156164  1  0
164165  2  0
164166  1  0
166167  1  0
167168  1  0
168169  1  0
169170  1  0
170171  2  0
170172  1  0
167173  1  0
173174  2  0
173175  1  0
175176  1  0
176177  1  0
177178  1  0
178179  1  0
179180  1  0
176181  1  0
176182  1  1
182183  2  0
182184  1  0
184185  1  0
185186  1  0
186187  1  0
187188  1  0
188189  1  0
188190  2  0
185191  1  0
191192  2  0
191193  1  0
193194  1  0
194195  1  0
195196  1  0
196197  1  0
197198  1  0
198199  1  0
199200  2  3
199201  1  0
194202  1  0
202203  2  0
202204  1  0
  8  3  1  0
152144  1  0
 11  6  1  0
104147  2  0
180152  2  0
 18 13  2  0
 22  9  1  0
 26 21  1  0
  2205  1  0
  4206  1  0
  5207  1  0
  8208  1  0
 15209  1  0
 17210  1  0
 18211  1  0
 19212  1  0
 23213  1  0
 24214  1  0
 26215  1  0
 27216  1  0
 29217  1  0
 30218  1  0
 30219  1  0
 31220  1  0
 31221  1  0
 34222  1  0
 35223  1  1
 36224  1  6
 37225  1  0
 38226  1  0
 38227  1  0
 38228  1  0
 41229  1  0
 42230  1  1
 43231  1  0
 43232  1  0
 44233  1  0
 44234  1  0
 45235  1  0
 45236  1  0
 46237  1  0
 48238  1  0
 48239  1  0
 49240  1  0
 49241  1  0
 52242  1  0
 53243  1  1
 54244  1  0
 54245  1  0
 55246  1  0
 55247  1  0
 57248  1  0
 57249  1  0
 61250  1  0
 62251  1  1
 63252  1  0
 63253  1  0
 63254  1  0
 66255  1  0
 67256  1  1
 68257  1  0
 68258  1  0
 69259  1  0
 69260  1  0
 70261  1  0
 70262  1  0
 71263  1  0
 73264  1  0
 73265  1  0
 74266  1  0
 74267  1  0
 77268  1  0
 78269  1  1
 79270  1  0
 79271  1  0
 80272  1  0
 80273  1  0
 81274  1  0
 81275  1  0
 82276  1  0
 84277  1  0
 84278  1  0
 85279  1  0
 85280  1  0
 88281  1  0
 89282  1  1
 90283  1  0
 90284  1  0
 92285  1  0
 92286  1  0
 96287  1  0
 98288  1  0
 98289  1  0
 99290  1  0
 99291  1  0
100292  1  0
100293  1  0
101294  1  0
101295  1  0
102296  1  0
102297  1  0
103298  1  0
103299  1  0
104300  1  0
105301  1  0
105302  1  0
105303  1  0
108304  1  0
109305  1  6
110306  1  0
110307  1  0
111308  1  0
111309  1  0
112310  1  0
112311  1  0
113312  1  0
115313  1  0
115314  1  0
116315  1  0
116316  1  0
119317  1  0
120318  1  6
121319  1  0
121320  1  0
122321  1  0
122322  1  0
123323  1  0
123324  1  0
124325  1  0
126326  1  0
126327  1  0
127328  1  0
127329  1  0
130330  1  0
131331  1  6
132332  1  0
132333  1  0
133334  1  0
133335  1  0
134336  1  0
134337  1  0
135338  1  0
137339  1  0
137340  1  0
138341  1  0
138342  1  0
141343  1  0
142344  1  1
143345  1  0
143346  1  0
145347  1  0
146348  1  0
148349  1  0
149350  1  0
150351  1  0
151352  1  0
155353  1  0
156354  1  6
157355  1  0
157356  1  0
158357  1  0
158358  1  0
159359  1  0
159360  1  0
160361  1  0
162362  1  0
162363  1  0
163364  1  0
163365  1  0
166366  1  0
167367  1  6
168368  1  0
168369  1  0
169370  1  0
169371  1  0
175372  1  0
177373  1  0
177374  1  0
178375  1  0
178376  1  0
179377  1  0
179378  1  0
180379  1  0
181380  1  0
181381  1  0
181382  1  0
184383  1  0
185384  1  1
186385  1  0
186386  1  0
187387  1  0
187388  1  0
189389  1  0
189390  1  0
193391  1  0
194392  1  6
195393  1  0
195394  1  0
196395  1  0
196396  1  0
197397  1  0
197398  1  0
198399  1  0
200400  1  0
200401  1  0
201402  1  0
201403  1  0
M  CHG  8  48   1  73   1  84   1 115   1 126   1 137   1 162   1 172  -1
M  CHG  2 200   1 204  -1
M  END
