
     RDKit          2D

290293  0  0  0  0  0  0  0  0999 V2000
  -18.8356   -5.8629    0.0000 N   0  0  0  0  0  0  0  0  0  0  0  0
  -17.3377   -5.7831    0.0000 C   0  0  0  0  0  0  0  0  0  0  0  0
  -16.6579   -4.4460    0.0000 C   0  0  0  0  0  0  0  0  0  0  0  0
  -15.1600   -4.3661    0.0000 C   0  0  0  0  0  0  0  0  0  0  0  0
  -14.5013   -5.7137    0.0000 O   0  0  0  0  0  0  0  0  0  0  0  0
  -14.4803   -3.0290    0.0000 N   0  0  0  0  0  0  0  0  0  0  0  0
  -12.9824   -2.9491    0.0000 C   0  0  0  0  0  0  0  0  0  0  0  0
  -11.9314   -4.0194    0.0000 C   0  0  0  0  0  0  0  0  0  0  0  0
  -10.6116   -4.7323    0.0000 C   0  0  0  0  0  0  0  0  0  0  0  0
   -9.1404   -5.0245    0.0000 C   0  0  0  0  0  0  0  0  0  0  0  0
   -7.6483   -4.8701    0.0000 C   0  0  0  0  0  0  0  0  0  0  0  0
  -13.6920   -4.2707    0.0000 C   0  0  0  0  0  0  0  0  0  0  0  0
  -13.6712   -1.6167    0.0000 C   0  0  0  0  0  0  0  0  0  0  0  0
  -14.5383   -1.7972    0.0000 O   0  0  0  0  0  0  0  0  0  0  0  0
  -13.9367   -0.1403    0.0000 N   0  0  0  0  0  0  0  0  0  0  0  0
  -13.7552    1.3486    0.0000 C   0  0  0  0  0  0  0  0  0  0  0  0
  -15.1871    0.9017    0.0000 C   0  0  0  0  0  0  0  0  0  0  0  0
  -16.2901    1.9182    0.0000 C   0  0  0  0  0  0  0  0  0  0  0  0
  -17.7220    1.4712    0.0000 C   0  0  0  0  0  0  0  0  0  0  0  0
  -18.8250    2.4877    0.0000 N   0  0  0  0  0  0  0  0  0  0  0  0
  -20.2568    2.0407    0.0000 C   0  0  0  0  0  0  0  0  0  0  0  0
  -21.3599    3.0573    0.0000 N   0  0  0  0  0  0  0  0  0  0  0  0
  -20.5857    0.5772    0.0000 N   0  0  0  0  0  0  0  0  0  0  0  0
  -13.1429    2.7180    0.0000 C   0  0  0  0  0  0  0  0  0  0  0  0
  -14.4057    3.5275    0.0000 O   0  0  0  0  0  0  0  0  0  0  0  0
  -12.1542    3.8460    0.0000 N   0  0  0  0  0  0  0  0  0  0  0  0
  -10.8769    4.6325    0.0000 C   0  0  0  0  0  0  0  0  0  0  0  0
  -12.1192    5.4733    0.0000 C   0  0  0  0  0  0  0  0  0  0  0  0
  -12.0121    6.9695    0.0000 C   0  0  0  0  0  0  0  0  0  0  0  0
  -13.2543    7.8102    0.0000 C   0  0  0  0  0  0  0  0  0  0  0  0
  -13.1473    9.3064    0.0000 N   0  0  0  0  0  0  0  0  0  0  0  0
  -14.3895   10.1472    0.0000 C   0  0  0  0  0  0  0  0  0  0  0  0
  -14.2825   11.6434    0.0000 N   0  0  0  0  0  0  0  0  0  0  0  0
  -15.7388    9.4918    0.0000 N   0  0  0  0  0  0  0  0  0  0  0  0
   -9.4246    5.0076    0.0000 C   0  0  0  0  0  0  0  0  0  0  0  0
   -9.5790    6.4996    0.0000 O   0  0  0  0  0  0  0  0  0  0  0  0
   -7.9262    4.9379    0.0000 N   0  0  0  0  0  0  0  0  0  0  0  0
   -6.5149    4.4296    0.0000 C   0  0  0  0  0  0  0  0  0  0  0  0
   -6.6321    5.9250    0.0000 C   0  0  0  0  0  0  0  0  0  0  0  0
   -5.3162    3.5280    0.0000 C   0  0  0  0  0  0  0  0  0  0  0  0
   -4.8648    4.9584    0.0000 O   0  0  0  0  0  0  0  0  0  0  0  0
   -4.4364    2.3130    0.0000 N   0  0  0  0  0  0  0  0  0  0  0  0
   -3.9539    0.8928    0.0000 C   0  0  0  0  0  0  0  0  0  0  0  0
   -3.9114   -0.6066    0.0000 C   0  0  0  0  0  0  0  0  0  0  0  0
   -4.3128   -2.0519    0.0000 C   0  0  0  0  0  0  0  0  0  0  0  0
   -5.1223   -3.3147    0.0000 C   0  0  0  0  0  0  0  0  0  0  0  0
   -6.2681   -4.2828    0.0000 C   0  0  0  0  0  0  0  0  0  0  0  0
   -3.3779    2.3789    0.0000 C   0  0  0  0  0  0  0  0  0  0  0  0
   -3.2310    3.7379    0.0000 C   0  0  0  0  0  0  0  0  0  0  0  0
   -2.8295    5.0446    0.0000 C   0  0  0  0  0  0  0  0  0  0  0  0
   -2.1881    6.2516    0.0000 C   0  0  0  0  0  0  0  0  0  0  0  0
   -2.8962   -0.2996    0.0000 C   0  0  0  0  0  0  0  0  0  0  0  0
   -4.9487   -1.0917    0.0000 O   0  0  0  0  0  0  0  0  0  0  0  0
   -2.2851   -1.5223    0.0000 N   0  0  0  0  0  0  0  0  0  0  0  0
   -1.4536   -2.6072    0.0000 C   0  0  0  0  0  0  0  0  0  0  0  0
   -2.3610   -4.5310    0.0000 C   0  0  0  0  0  0  0  0  0  0  0  0
   -1.3052   -5.5965    0.0000 C   0  0  0  0  0  0  0  0  0  0  0  0
   -1.7000   -7.0436    0.0000 C   0  0  0  0  0  0  0  0  0  0  0  0
   -0.6441   -8.1091    0.0000 N   0  0  0  0  0  0  0  0  0  0  0  0
   -1.0389   -9.5562    0.0000 C   0  0  0  0  0  0  0  0  0  0  0  0
   -0.2723  -10.8455    0.0000 N   0  0  0  0  0  0  0  0  0  0  0  0
   -2.4896   -9.9378    0.0000 N   0  0  0  0  0  0  0  0  0  0  0  0
   -0.4318   -3.5152    0.0000 C   0  0  0  0  0  0  0  0  0  0  0  0
   -1.0741   -4.7973    0.0000 O   0  0  0  0  0  0  0  0  0  0  0  0
    0.7434   -4.2133    0.0000 N   0  0  0  0  0  0  0  0  0  0  0  0
    2.0295   -4.6765    0.0000 C   0  0  0  0  0  0  0  0  0  0  0  0
    2.3062   -6.7855    0.0000 C   0  0  0  0  0  0  0  0  0  0  0  0
    1.2922   -7.8908    0.0000 C   0  0  0  0  0  0  0  0  0  0  0  0
    1.7424   -9.3217    0.0000 C   0  0  0  0  0  0  0  0  0  0  0  0
    0.7284  -10.4270    0.0000 N   0  0  0  0  0  0  0  0  0  0  0  0
    1.1786  -11.8578    0.0000 C   0  0  0  0  0  0  0  0  0  0  0  0
    0.1646  -12.9632    0.0000 N   0  0  0  0  0  0  0  0  0  0  0  0
    2.6429  -12.1833    0.0000 N   0  0  0  0  0  0  0  0  0  0  0  0
    3.3799   -4.8879    0.0000 C   0  0  0  0  0  0  0  0  0  0  0  0
    3.4310   -7.0838    0.0000 O   0  0  0  0  0  0  0  0  0  0  0  0
    4.7460   -4.8399    0.0000 N   0  0  0  0  0  0  0  0  0  0  0  0
    6.0783   -4.5342    0.0000 C   0  0  0  0  0  0  0  0  0  0  0  0
    7.4513   -6.1588    0.0000 C   0  0  0  0  0  0  0  0  0  0  0  0
    7.1959   -7.6369    0.0000 C   0  0  0  0  0  0  0  0  0  0  0  0
    8.3482   -8.5972    0.0000 C   0  0  0  0  0  0  0  0  0  0  0  0
    8.0927  -10.0753    0.0000 N   0  0  0  0  0  0  0  0  0  0  0  0
    9.2451  -11.0356    0.0000 C   0  0  0  0  0  0  0  0  0  0  0  0
    8.9896  -12.5136    0.0000 N   0  0  0  0  0  0  0  0  0  0  0  0
   10.6528  -10.5178    0.0000 N   0  0  0  0  0  0  0  0  0  0  0  0
    7.3287   -3.9820    0.0000 C   0  0  0  0  0  0  0  0  0  0  0  0
    8.5589   -5.8016    0.0000 O   0  0  0  0  0  0  0  0  0  0  0  0
    8.4520   -3.2030    0.0000 N   0  0  0  0  0  0  0  0  0  0  0  0
    9.4075   -2.2256    0.0000 C   0  0  0  0  0  0  0  0  0  0  0  0
   11.4409   -2.8500    0.0000 C   0  0  0  0  0  0  0  0  0  0  0  0
   12.0251   -4.2315    0.0000 C   0  0  0  0  0  0  0  0  0  0  0  0
   11.2508   -5.5162    0.0000 C   0  0  0  0  0  0  0  0  0  0  0  0
   12.2333   -6.6496    0.0000 N   0  0  0  0  0  0  0  0  0  0  0  0
   13.6149   -6.0654    0.0000 C   0  0  0  0  0  0  0  0  0  0  0  0
   14.9735   -6.7012    0.0000 C   0  0  0  0  0  0  0  0  0  0  0  0
   16.2034   -5.8425    0.0000 C   0  0  0  0  0  0  0  0  0  0  0  0
   16.0747   -4.3481    0.0000 C   0  0  0  0  0  0  0  0  0  0  0  0
   14.7161   -3.7123    0.0000 C   0  0  0  0  0  0  0  0  0  0  0  0
   13.4862   -4.5710    0.0000 C   0  0  0  0  0  0  0  0  0  0  0  0
   10.1608   -1.0850    0.0000 C   0  0  0  0  0  0  0  0  0  0  0  0
   12.1795   -1.9507    0.0000 O   0  0  0  0  0  0  0  0  0  0  0  0
   10.6847    0.1776    0.0000 N   0  0  0  0  0  0  0  0  0  0  0  0
   10.9601    1.5165    0.0000 C   0  0  0  0  0  0  0  0  0  0  0  0
   13.0082    2.0905    0.0000 C   0  0  0  0  0  0  0  0  0  0  0  0
   14.2466    1.2441    0.0000 C   0  0  0  0  0  0  0  0  0  0  0  0
   15.5988    1.8934    0.0000 C   0  0  0  0  0  0  0  0  0  0  0  0
   16.8372    1.0470    0.0000 N   0  0  0  0  0  0  0  0  0  0  0  0
   18.1894    1.6963    0.0000 C   0  0  0  0  0  0  0  0  0  0  0  0
   19.4278    0.8499    0.0000 N   0  0  0  0  0  0  0  0  0  0  0  0
   18.3032    3.1920    0.0000 N   0  0  0  0  0  0  0  0  0  0  0  0
   10.9771    2.8833    0.0000 C   0  0  0  0  0  0  0  0  0  0  0  0
   13.1434    3.2464    0.0000 O   0  0  0  0  0  0  0  0  0  0  0  0
   10.7352    4.2287    0.0000 N   0  0  0  0  0  0  0  0  0  0  0  0
   10.2430    5.5039    0.0000 C   0  0  0  0  0  0  0  0  0  0  0  0
   11.6557    7.0941    0.0000 C   0  0  0  0  0  0  0  0  0  0  0  0
   13.1551    7.0516    0.0000 C   0  0  0  0  0  0  0  0  0  0  0  0
   13.9416    8.3289    0.0000 C   0  0  0  0  0  0  0  0  0  0  0  0
   15.4410    8.2864    0.0000 N   0  0  0  0  0  0  0  0  0  0  0  0
   16.2275    9.5636    0.0000 C   0  0  0  0  0  0  0  0  0  0  0  0
   17.7269    9.5211    0.0000 N   0  0  0  0  0  0  0  0  0  0  0  0
   15.5146   10.8834    0.0000 N   0  0  0  0  0  0  0  0  0  0  0  0
    9.5184    6.6630    0.0000 C   0  0  0  0  0  0  0  0  0  0  0  0
   11.1445    8.1395    0.0000 O   0  0  0  0  0  0  0  0  0  0  0  0
    8.5876    7.6639    0.0000 N   0  0  0  0  0  0  0  0  0  0  0  0
    7.4841    8.4707    0.0000 C   0  0  0  0  0  0  0  0  0  0  0  0
    6.2479    9.0540    0.0000 C   0  0  0  0  0  0  0  0  0  0  0  0
    4.9236    9.3928    0.0000 C   0  0  0  0  0  0  0  0  0  0  0  0
    3.5592    9.4749    0.0000 C   0  0  0  0  0  0  0  0  0  0  0  0
    2.2038    9.2972    0.0000 C   0  0  0  0  0  0  0  0  0  0  0  0
    0.9066    8.8663    0.0000 C   0  0  0  0  0  0  0  0  0  0  0  0
   -0.2856    8.1977    0.0000 C   0  0  0  0  0  0  0  0  0  0  0  0
   -1.3298    7.3155    0.0000 C   0  0  0  0  0  0  0  0  0  0  0  0
    9.1725    9.7643    0.0000 C   0  0  0  0  0  0  0  0  0  0  0  0
    7.8127   10.5722    0.0000 C   0  0  0  0  0  0  0  0  0  0  0  0
    8.9931   11.4978    0.0000 O   0  0  0  0  0  0  0  0  0  0  0  0
    6.7139   11.5933    0.0000 O   0  0  0  0  0  0  0  0  0  0  0  0
  -19.5154   -7.2000    0.0000 H   0  0  0  0  0  0  0  0  0  0  0  0
  -19.6537   -4.6056    0.0000 H   0  0  0  0  0  0  0  0  0  0  0  0
  -17.5192   -7.2721    0.0000 H   0  0  0  0  0  0  0  0  0  0  0  0
  -15.9029   -6.2203    0.0000 H   0  0  0  0  0  0  0  0  0  0  0  0
  -18.0928   -4.0087    0.0000 H   0  0  0  0  0  0  0  0  0  0  0  0
  -16.4764   -2.9570    0.0000 H   0  0  0  0  0  0  0  0  0  0  0  0
  -14.9932   -2.4188    0.0000 H   0  0  0  0  0  0  0  0  0  0  0  0
  -12.0384   -5.5156    0.0000 H   0  0  0  0  0  0  0  0  0  0  0  0
  -13.2656   -4.7049    0.0000 H   0  0  0  0  0  0  0  0  0  0  0  0
  -10.4535   -6.2239    0.0000 H   0  0  0  0  0  0  0  0  0  0  0  0
  -11.6845   -5.7806    0.0000 H   0  0  0  0  0  0  0  0  0  0  0  0
   -8.3860   -6.3210    0.0000 H   0  0  0  0  0  0  0  0  0  0  0  0
   -9.8565   -6.3425    0.0000 H   0  0  0  0  0  0  0  0  0  0  0  0
   -7.2733   -6.3225    0.0000 H   0  0  0  0  0  0  0  0  0  0  0  0
  -14.8952   -4.8853    0.0000 H   0  0  0  0  0  0  0  0  0  0  0  0
  -13.3668   -5.8189    0.0000 H   0  0  0  0  0  0  0  0  0  0  0  0
  -12.2954   -5.2020    0.0000 H   0  0  0  0  0  0  0  0  0  0  0  0
  -15.4361   -0.1828    0.0000 H   0  0  0  0  0  0  0  0  0  0  0  0
  -14.6074    2.5830    0.0000 H   0  0  0  0  0  0  0  0  0  0  0  0
  -16.2599   -0.1467    0.0000 H   0  0  0  0  0  0  0  0  0  0  0  0
  -14.8411   -0.5579    0.0000 H   0  0  0  0  0  0  0  0  0  0  0  0
  -16.9789    3.2507    0.0000 H   0  0  0  0  0  0  0  0  0  0  0  0
  -15.2173    2.9665    0.0000 H   0  0  0  0  0  0  0  0  0  0  0  0
  -18.9146    0.5614    0.0000 H   0  0  0  0  0  0  0  0  0  0  0  0
  -17.2007    0.0647    0.0000 H   0  0  0  0  0  0  0  0  0  0  0  0
  -18.4962    3.9512    0.0000 H   0  0  0  0  0  0  0  0  0  0  0  0
  -22.7917    2.6103    0.0000 H   0  0  0  0  0  0  0  0  0  0  0  0
  -21.0310    4.5208    0.0000 H   0  0  0  0  0  0  0  0  0  0  0  0
  -22.0175    0.1302    0.0000 H   0  0  0  0  0  0  0  0  0  0  0  0
  -19.4826   -0.4393    0.0000 H   0  0  0  0  0  0  0  0  0  0  0  0
  -13.1223    4.9918    0.0000 H   0  0  0  0  0  0  0  0  0  0  0  0
  -10.4432    6.0684    0.0000 H   0  0  0  0  0  0  0  0  0  0  0  0
  -13.6077    5.6584    0.0000 H   0  0  0  0  0  0  0  0  0  0  0  0
  -13.0446    4.2928    0.0000 H   0  0  0  0  0  0  0  0  0  0  0  0
  -11.3998    8.3388    0.0000 H   0  0  0  0  0  0  0  0  0  0  0  0
  -10.5236    6.7843    0.0000 H   0  0  0  0  0  0  0  0  0  0  0  0
  -14.7092    8.1754    0.0000 H   0  0  0  0  0  0  0  0  0  0  0  0
  -14.0290    6.5257    0.0000 H   0  0  0  0  0  0  0  0  0  0  0  0
  -11.7981    9.9618    0.0000 H   0  0  0  0  0  0  0  0  0  0  0  0
  -15.5247   12.4841    0.0000 H   0  0  0  0  0  0  0  0  0  0  0  0
  -12.9333   12.2988    0.0000 H   0  0  0  0  0  0  0  0  0  0  0  0
  -16.9810   10.3326    0.0000 H   0  0  0  0  0  0  0  0  0  0  0  0
  -15.8458    7.9956    0.0000 H   0  0  0  0  0  0  0  0  0  0  0  0
   -7.8155    6.4338    0.0000 H   0  0  0  0  0  0  0  0  0  0  0  0
   -5.2978    5.3064    0.0000 H   0  0  0  0  0  0  0  0  0  0  0  0
   -7.8969    6.7315    0.0000 H   0  0  0  0  0  0  0  0  0  0  0  0
   -6.2307    7.3703    0.0000 H   0  0  0  0  0  0  0  0  0  0  0  0
   -5.1326    5.9638    0.0000 H   0  0  0  0  0  0  0  0  0  0  0  0
   -3.1040    3.0019    0.0000 H   0  0  0  0  0  0  0  0  0  0  0  0
   -2.5622    0.0488    0.0000 H   0  0  0  0  0  0  0  0  0  0  0  0
   -2.8847   -1.7002    0.0000 H   0  0  0  0  0  0  0  0  0  0  0  0
   -2.8469   -2.3699    0.0000 H   0  0  0  0  0  0  0  0  0  0  0  0
   -3.8232   -3.4698    0.0000 H   0  0  0  0  0  0  0  0  0  0  0  0
   -3.8153   -4.0507    0.0000 H   0  0  0  0  0  0  0  0  0  0  0  0
   -4.7112   -4.7573    0.0000 H   0  0  0  0  0  0  0  0  0  0  0  0
   -5.4816   -5.5601    0.0000 H   0  0  0  0  0  0  0  0  0  0  0  0
   -5.3622    1.6128    0.0000 H   0  0  0  0  0  0  0  0  0  0  0  0
   -5.2347    3.3425    0.0000 H   0  0  0  0  0  0  0  0  0  0  0  0
   -5.4165    3.9002    0.0000 H   0  0  0  0  0  0  0  0  0  0  0  0
   -4.7238    5.1433    0.0000 H   0  0  0  0  0  0  0  0  0  0  0  0
   -4.9710    5.4362    0.0000 H   0  0  0  0  0  0  0  0  0  0  0  0
   -4.3503    6.5317    0.0000 H   0  0  0  0  0  0  0  0  0  0  0  0
   -4.0238    7.4640    0.0000 H   0  0  0  0  0  0  0  0  0  0  0  0
   -3.7810   -3.0916    0.0000 H   0  0  0  0  0  0  0  0  0  0  0  0
   -3.3919   -3.5500    0.0000 H   0  0  0  0  0  0  0  0  0  0  0  0
   -3.3698   -5.6411    0.0000 H   0  0  0  0  0  0  0  0  0  0  0  0
   -3.8568   -4.4197    0.0000 H   0  0  0  0  0  0  0  0  0  0  0  0
   -0.0367   -6.3972    0.0000 H   0  0  0  0  0  0  0  0  0  0  0  0
   -0.1686   -4.6176    0.0000 H   0  0  0  0  0  0  0  0  0  0  0  0
   -2.5659   -8.2684    0.0000 H   0  0  0  0  0  0  0  0  0  0  0  0
   -3.1244   -6.5736    0.0000 H   0  0  0  0  0  0  0  0  0  0  0  0
    0.8557   -8.0898    0.0000 H   0  0  0  0  0  0  0  0  0  0  0  0
   -0.3779  -12.0688    0.0000 H   0  0  0  0  0  0  0  0  0  0  0  0
    1.5623  -10.6790    0.0000 H   0  0  0  0  0  0  0  0  0  0  0  0
   -2.8844  -11.3849    0.0000 H   0  0  0  0  0  0  0  0  0  0  0  0
   -3.5454   -8.8723    0.0000 H   0  0  0  0  0  0  0  0  0  0  0  0
   -0.1954   -6.2030    0.0000 H   0  0  0  0  0  0  0  0  0  0  0  0
    0.7739   -6.3935    0.0000 H   0  0  0  0  0  0  0  0  0  0  0  0
    3.2186   -7.9761    0.0000 H   0  0  0  0  0  0  0  0  0  0  0  0
    3.7650   -6.4363    0.0000 H   0  0  0  0  0  0  0  0  0  0  0  0
    0.1682   -8.8842    0.0000 H   0  0  0  0  0  0  0  0  0  0  0  0
    0.2414   -6.8204    0.0000 H   0  0  0  0  0  0  0  0  0  0  0  0
    2.6549  -10.5122    0.0000 H   0  0  0  0  0  0  0  0  0  0  0  0
    3.1477   -8.7972    0.0000 H   0  0  0  0  0  0  0  0  0  0  0  0
   -0.7711  -10.4655    0.0000 H   0  0  0  0  0  0  0  0  0  0  0  0
    0.6148  -14.3940    0.0000 H   0  0  0  0  0  0  0  0  0  0  0  0
   -1.2997  -12.6377    0.0000 H   0  0  0  0  0  0  0  0  0  0  0  0
    3.0931  -13.6142    0.0000 H   0  0  0  0  0  0  0  0  0  0  0  0
    3.6569  -11.0780    0.0000 H   0  0  0  0  0  0  0  0  0  0  0  0
    4.8492   -7.0339    0.0000 H   0  0  0  0  0  0  0  0  0  0  0  0
    5.7751   -6.6041    0.0000 H   0  0  0  0  0  0  0  0  0  0  0  0
    8.8626   -6.6671    0.0000 H   0  0  0  0  0  0  0  0  0  0  0  0
    8.4897   -5.0763    0.0000 H   0  0  0  0  0  0  0  0  0  0  0  0
    6.4503   -8.9385    0.0000 H   0  0  0  0  0  0  0  0  0  0  0  0
    5.7035   -7.4853    0.0000 H   0  0  0  0  0  0  0  0  0  0  0  0
    9.7595   -9.1054    0.0000 H   0  0  0  0  0  0  0  0  0  0  0  0
    9.2469   -7.3962    0.0000 H   0  0  0  0  0  0  0  0  0  0  0  0
    6.6849  -10.5931    0.0000 H   0  0  0  0  0  0  0  0  0  0  0  0
   10.1419  -13.4739    0.0000 H   0  0  0  0  0  0  0  0  0  0  0  0
    7.5818  -13.0315    0.0000 H   0  0  0  0  0  0  0  0  0  0  0  0
   11.8052  -11.4780    0.0000 H   0  0  0  0  0  0  0  0  0  0  0  0
   10.9083   -9.0397    0.0000 H   0  0  0  0  0  0  0  0  0  0  0  0
    9.7249   -4.9930    0.0000 H   0  0  0  0  0  0  0  0  0  0  0  0
   10.4477   -4.0810    0.0000 H   0  0  0  0  0  0  0  0  0  0  0  0
   12.9329   -2.6953    0.0000 H   0  0  0  0  0  0  0  0  0  0  0  0
   11.7292   -1.3779    0.0000 H   0  0  0  0  0  0  0  0  0  0  0  0
    9.7831   -5.8261    0.0000 H   0  0  0  0  0  0  0  0  0  0  0  0
   11.8939   -8.1107    0.0000 H   0  0  0  0  0  0  0  0  0  0  0  0
   15.1021   -8.1957    0.0000 H   0  0  0  0  0  0  0  0  0  0  0  0
   17.5620   -6.4783    0.0000 H   0  0  0  0  0  0  0  0  0  0  0  0
   17.3046   -3.4894    0.0000 H   0  0  0  0  0  0  0  0  0  0  0  0
   14.5874   -2.2178    0.0000 H   0  0  0  0  0  0  0  0  0  0  0  0
   12.7233   -0.6400    0.0000 H   0  0  0  0  0  0  0  0  0  0  0  0
   12.7169    0.3808    0.0000 H   0  0  0  0  0  0  0  0  0  0  0  0
   14.0568    3.1631    0.0000 H   0  0  0  0  0  0  0  0  0  0  0  0
   12.4549    3.4848    0.0000 H   0  0  0  0  0  0  0  0  0  0  0  0
   15.1208    0.0252    0.0000 H   0  0  0  0  0  0  0  0  0  0  0  0
   13.4887   -0.0503    0.0000 H   0  0  0  0  0  0  0  0  0  0  0  0
   16.6474    2.9660    0.0000 H   0  0  0  0  0  0  0  0  0  0  0  0
   14.8797    3.2098    0.0000 H   0  0  0  0  0  0  0  0  0  0  0  0
   16.7234   -0.4486    0.0000 H   0  0  0  0  0  0  0  0  0  0  0  0
   20.7800    1.4992    0.0000 H   0  0  0  0  0  0  0  0  0  0  0  0
   19.3140   -0.6458    0.0000 H   0  0  0  0  0  0  0  0  0  0  0  0
   19.6554    3.8413    0.0000 H   0  0  0  0  0  0  0  0  0  0  0  0
   17.0648    4.0384    0.0000 H   0  0  0  0  0  0  0  0  0  0  0  0
   12.8922    4.6430    0.0000 H   0  0  0  0  0  0  0  0  0  0  0  0
   12.3350    5.4983    0.0000 H   0  0  0  0  0  0  0  0  0  0  0  0
   11.9579    8.5634    0.0000 H   0  0  0  0  0  0  0  0  0  0  0  0
   10.4365    7.9679    0.0000 H   0  0  0  0  0  0  0  0  0  0  0  0
   14.5495    6.4988    0.0000 H   0  0  0  0  0  0  0  0  0  0  0  0
   13.2174    5.5529    0.0000 H   0  0  0  0  0  0  0  0  0  0  0  0
   14.2438    9.7981    0.0000 H   0  0  0  0  0  0  0  0  0  0  0  0
   12.6250    9.0475    0.0000 H   0  0  0  0  0  0  0  0  0  0  0  0
   16.1539    6.9666    0.0000 H   0  0  0  0  0  0  0  0  0  0  0  0
   18.5134   10.7984    0.0000 H   0  0  0  0  0  0  0  0  0  0  0  0
   18.4398    8.2013    0.0000 H   0  0  0  0  0  0  0  0  0  0  0  0
   16.3011   12.1607    0.0000 H   0  0  0  0  0  0  0  0  0  0  0  0
   14.0152   10.9259    0.0000 H   0  0  0  0  0  0  0  0  0  0  0  0
   10.1781    9.1787    0.0000 H   0  0  0  0  0  0  0  0  0  0  0  0
    6.1729   11.1797    0.0000 H   0  0  0  0  0  0  0  0  0  0  0  0
    7.4007   10.9007    0.0000 H   0  0  0  0  0  0  0  0  0  0  0  0
    4.6204   11.5268    0.0000 H   0  0  0  0  0  0  0  0  0  0  0  0
    5.7061   11.4243    0.0000 H   0  0  0  0  0  0  0  0  0  0  0  0
    2.8576   11.5130    0.0000 H   0  0  0  0  0  0  0  0  0  0  0  0
    4.1159   11.5572    0.0000 H   0  0  0  0  0  0  0  0  0  0  0  0
    1.1292   11.1657    0.0000 H   0  0  0  0  0  0  0  0  0  0  0  0
    2.3565   11.4473    0.0000 H   0  0  0  0  0  0  0  0  0  0  0  0
   -0.5022   10.4977    0.0000 H   0  0  0  0  0  0  0  0  0  0  0  0
    0.6496   11.0064    0.0000 H   0  0  0  0  0  0  0  0  0  0  0  0
   -2.0607    9.3696    0.0000 H   0  0  0  0  0  0  0  0  0  0  0  0
   -0.9430   10.2504    0.0000 H   0  0  0  0  0  0  0  0  0  0  0  0
   -2.9029    8.8534    0.0000 H   0  0  0  0  0  0  0  0  0  0  0  0
    9.4210   11.2436    0.0000 H   0  0  0  0  0  0  0  0  0  0  0  0
   10.6250   10.1391    0.0000 H   0  0  0  0  0  0  0  0  0  0  0  0
    9.9556    8.4849    0.0000 H   0  0  0  0  0  0  0  0  0  0  0  0
  1  2  1  0
  2  3  1  0
  3  4  1  0
  4  5  2  0
  4  6  1  0
  7  6  1  6
  7  8  1  0
  8  9  1  0
  9 10  1  0
 10 11  1  0
  7 12  1  0
  7 13  1  0
 13 14  2  0
 13 15  1  0
 15 16  1  0
 16 17  1  0
 17 18  1  0
 18 19  1  0
 19 20  1  0
 20 21  1  0
 21 22  2  3
 21 23  1  0
 16 24  1  0
 24 25  2  0
 24 26  1  0
 26 27  1  0
 27 28  1  0
 28 29  1  0
 29 30  1  0
 30 31  1  0
 31 32  1  0
 32 33  2  3
 32 34  1  0
 27 35  1  0
 35 36  2  0
 35 37  1  0
 37 38  1  0
 38 39  1  0
 38 40  1  0
 40 41  2  0
 40 42  1  0
 42 43  1  0
 43 44  1  0
 44 45  1  0
 45 46  1  0
 46 47  1  0
 43 48  1  0
 48 49  1  0
 49 50  1  0
 50 51  1  0
 43 52  1  0
 52 53  2  0
 52 54  1  0
 54 55  1  0
 55 56  1  0
 56 57  1  0
 57 58  1  0
 58 59  1  0
 59 60  1  0
 60 61  2  3
 60 62  1  0
 55 63  1  0
 63 64  2  0
 63 65  1  0
 65 66  1  0
 66 67  1  0
 67 68  1  0
 68 69  1  0
 69 70  1  0
 70 71  1  0
 71 72  2  3
 71 73  1  0
 66 74  1  0
 74 75  2  0
 74 76  1  0
 76 77  1  0
 77 78  1  0
 78 79  1  0
 79 80  1  0
 80 81  1  0
 81 82  1  0
 82 83  2  3
 82 84  1  0
 77 85  1  0
 85 86  2  0
 85 87  1  0
 87 88  1  0
 88 89  1  0
 89 90  1  0
 90 91  2  0
 91 92  1  0
 92 93  1  0
 93 94  2  0
 94 95  1  0
 95 96  2  0
 96 97  1  0
 97 98  2  0
 88 99  1  0
 99100  2  0
 99101  1  0
101102  1  0
102103  1  0
103104  1  0
104105  1  0
105106  1  0
106107  1  0
107108  2  3
107109  1  0
102110  1  0
110111  2  0
110112  1  0
112113  1  0
113114  1  0
114115  1  0
115116  1  0
116117  1  0
117118  1  0
118119  2  3
118120  1  0
113121  1  0
121122  2  0
121123  1  0
123124  1  0
124125  1  0
125126  1  0
126127  1  0
127128  1  0
128129  1  0
129130  1  0
130131  1  0
124132  1  0
124133  1  1
133134  2  0
133135  1  0
 98 90  1  0
 98 93  1  0
 11 47  2  0
 51131  2  0
  1136  1  0
  1137  1  0
  2138  1  0
  2139  1  0
  3140  1  0
  3141  1  0
  6142  1  0
  8143  1  0
  8144  1  0
  9145  1  0
  9146  1  0
 10147  1  0
 10148  1  0
 11149  1  0
 12150  1  0
 12151  1  0
 12152  1  0
 15153  1  0
 16154  1  1
 17155  1  0
 17156  1  0
 18157  1  0
 18158  1  0
 19159  1  0
 19160  1  0
 20161  1  0
 22162  1  0
 22163  1  0
 23164  1  0
 23165  1  0
 26166  1  0
 27167  1  1
 28168  1  0
 28169  1  0
 29170  1  0
 29171  1  0
 30172  1  0
 30173  1  0
 31174  1  0
 33175  1  0
 33176  1  0
 34177  1  0
 34178  1  0
 37179  1  0
 38180  1  1
 39181  1  0
 39182  1  0
 39183  1  0
 42184  1  0
 44185  1  0
 44186  1  0
 45187  1  0
 45188  1  0
 46189  1  0
 46190  1  0
 47191  1  0
 48192  1  0
 48193  1  0
 49194  1  0
 49195  1  0
 50196  1  0
 50197  1  0
 51198  1  0
 54199  1  0
 55200  1  6
 56201  1  0
 56202  1  0
 57203  1  0
 57204  1  0
 58205  1  0
 58206  1  0
 59207  1  0
 61208  1  0
 61209  1  0
 62210  1  0
 62211  1  0
 65212  1  0
 66213  1  6
 67214  1  0
 67215  1  0
 68216  1  0
 68217  1  0
 69218  1  0
 69219  1  0
 70220  1  0
 72221  1  0
 72222  1  0
 73223  1  0
 73224  1  0
 76225  1  0
 77226  1  6
 78227  1  0
 78228  1  0
 79229  1  0
 79230  1  0
 80231  1  0
 80232  1  0
 81233  1  0
 83234  1  0
 83235  1  0
 84236  1  0
 84237  1  0
 87238  1  0
 88239  1  6
 89240  1  0
 89241  1  0
 91242  1  0
 92243  1  0
 94244  1  0
 95245  1  0
 96246  1  0
 97247  1  0
101248  1  0
102249  1  6
103250  1  0
103251  1  0
104252  1  0
104253  1  0
105254  1  0
105255  1  0
106256  1  0
108257  1  0
108258  1  0
109259  1  0
109260  1  0
112261  1  0
113262  1  6
114263  1  0
114264  1  0
115265  1  0
115266  1  0
116267  1  0
116268  1  0
117269  1  0
119270  1  0
119271  1  0
120272  1  0
120273  1  0
123274  1  0
125275  1  0
125276  1  0
126277  1  0
126278  1  0
127279  1  0
127280  1  0
128281  1  0
128282  1  0
129283  1  0
129284  1  0
130285  1  0
130286  1  0
131287  1  0
132288  1  0
132289  1  0
132290  1  0
M  CHG  8  22   1  33   1  61   1  72   1  83   1 108   1 119   1 135  -1
M  END
