
     RDKit          2D

455458  0  0  0  0  0  0  0  0999 V2000
  -32.3364    5.2115    0.0000 N   0  0  0  0  0  0  0  0  0  0  0  0
  -30.8518    5.4256    0.0000 C   0  0  0  0  0  0  0  0  0  0  0  0
  -30.2949    6.8184    0.0000 C   0  0  0  0  0  0  0  0  0  0  0  0
  -28.8102    7.0325    0.0000 C   0  0  0  0  0  0  0  0  0  0  0  0
  -27.8825    5.8538    0.0000 O   0  0  0  0  0  0  0  0  0  0  0  0
  -28.2533    8.4253    0.0000 N   0  0  0  0  0  0  0  0  0  0  0  0
  -26.7687    8.6394    0.0000 C   0  0  0  0  0  0  0  0  0  0  0  0
  -27.2373   10.0643    0.0000 C   0  0  0  0  0  0  0  0  0  0  0  0
  -28.7057   10.3709    0.0000 C   0  0  0  0  0  0  0  0  0  0  0  0
  -29.1743   11.7958    0.0000 N   0  0  0  0  0  0  0  0  0  0  0  0
  -29.8342    9.3827    0.0000 O   0  0  0  0  0  0  0  0  0  0  0  0
  -25.3004    8.3328    0.0000 C   0  0  0  0  0  0  0  0  0  0  0  0
  -24.4444    9.5647    0.0000 O   0  0  0  0  0  0  0  0  0  0  0  0
  -24.8317    6.9079    0.0000 N   0  0  0  0  0  0  0  0  0  0  0  0
  -23.3634    6.6013    0.0000 C   0  0  0  0  0  0  0  0  0  0  0  0
  -23.3164    8.1006    0.0000 C   0  0  0  0  0  0  0  0  0  0  0  0
  -21.9945    8.8096    0.0000 C   0  0  0  0  0  0  0  0  0  0  0  0
  -21.9476   10.3088    0.0000 C   0  0  0  0  0  0  0  0  0  0  0  0
  -20.6257   11.0178    0.0000 O   0  0  0  0  0  0  0  0  0  0  0  0
  -23.2225   11.0991    0.0000 O   0  0  0  0  0  0  0  0  0  0  0  0
  -22.0884    5.8110    0.0000 C   0  0  0  0  0  0  0  0  0  0  0  0
  -20.7666    6.5200    0.0000 O   0  0  0  0  0  0  0  0  0  0  0  0
  -22.1354    4.3118    0.0000 N   0  0  0  0  0  0  0  0  0  0  0  0
  -20.8605    3.5215    0.0000 C   0  0  0  0  0  0  0  0  0  0  0  0
  -21.8601    2.4031    0.0000 C   0  0  0  0  0  0  0  0  0  0  0  0
  -23.3285    2.7097    0.0000 C   0  0  0  0  0  0  0  0  0  0  0  0
  -24.3281    1.5914    0.0000 C   0  0  0  0  0  0  0  0  0  0  0  0
  -24.6034    3.5000    0.0000 C   0  0  0  0  0  0  0  0  0  0  0  0
  -19.3921    3.2149    0.0000 C   0  0  0  0  0  0  0  0  0  0  0  0
  -18.5362    4.4467    0.0000 O   0  0  0  0  0  0  0  0  0  0  0  0
  -18.9235    1.7900    0.0000 N   0  0  0  0  0  0  0  0  0  0  0  0
  -17.4551    1.4834    0.0000 C   0  0  0  0  0  0  0  0  0  0  0  0
  -16.3219    2.4662    0.0000 C   0  0  0  0  0  0  0  0  0  0  0  0
  -15.0232    3.2167    0.0000 C   0  0  0  0  0  0  0  0  0  0  0  0
  -13.6059    3.7079    0.0000 C   0  0  0  0  0  0  0  0  0  0  0  0
  -12.1213    3.9221    0.0000 C   0  0  0  0  0  0  0  0  0  0  0  0
  -10.6229    3.8513    0.0000 C   0  0  0  0  0  0  0  0  0  0  0  0
   -9.1651    3.4983    0.0000 C   0  0  0  0  0  0  0  0  0  0  0  0
   -7.8004    2.8758    0.0000 C   0  0  0  0  0  0  0  0  0  0  0  0
  -18.0066    2.8783    0.0000 C   0  0  0  0  0  0  0  0  0  0  0  0
  -18.3819    0.3039    0.0000 C   0  0  0  0  0  0  0  0  0  0  0  0
  -19.7335    0.9544    0.0000 O   0  0  0  0  0  0  0  0  0  0  0  0
  -19.0686   -1.0296    0.0000 N   0  0  0  0  0  0  0  0  0  0  0  0
  -19.4906   -2.4690    0.0000 C   0  0  0  0  0  0  0  0  0  0  0  0
  -20.5929   -1.4517    0.0000 C   0  0  0  0  0  0  0  0  0  0  0  0
  -22.0251   -1.8977    0.0000 C   0  0  0  0  0  0  0  0  0  0  0  0
  -22.3549   -3.3610    0.0000 C   0  0  0  0  0  0  0  0  0  0  0  0
  -23.7871   -3.8070    0.0000 N   0  0  0  0  0  0  0  0  0  0  0  0
  -24.1169   -5.2703    0.0000 C   0  0  0  0  0  0  0  0  0  0  0  0
  -25.5491   -5.7163    0.0000 N   0  0  0  0  0  0  0  0  0  0  0  0
  -23.0146   -6.2876    0.0000 N   0  0  0  0  0  0  0  0  0  0  0  0
  -19.6325   -3.9623    0.0000 C   0  0  0  0  0  0  0  0  0  0  0  0
  -21.1214   -3.7801    0.0000 O   0  0  0  0  0  0  0  0  0  0  0  0
  -19.4893   -5.4555    0.0000 N   0  0  0  0  0  0  0  0  0  0  0  0
  -19.0661   -6.8945    0.0000 C   0  0  0  0  0  0  0  0  0  0  0  0
  -20.5434   -6.6347    0.0000 C   0  0  0  0  0  0  0  0  0  0  0  0
  -21.5071   -7.7842    0.0000 O   0  0  0  0  0  0  0  0  0  0  0  0
  -18.3782   -8.2275    0.0000 C   0  0  0  0  0  0  0  0  0  0  0  0
  -19.6397   -9.0390    0.0000 O   0  0  0  0  0  0  0  0  0  0  0  0
  -17.4505   -9.4062    0.0000 N   0  0  0  0  0  0  0  0  0  0  0  0
  -16.3164  -10.3880    0.0000 C   0  0  0  0  0  0  0  0  0  0  0  0
  -17.6997  -10.9681    0.0000 C   0  0  0  0  0  0  0  0  0  0  0  0
  -17.8889  -12.4561    0.0000 C   0  0  0  0  0  0  0  0  0  0  0  0
  -16.6949  -13.3640    0.0000 C   0  0  0  0  0  0  0  0  0  0  0  0
  -16.8842  -14.8520    0.0000 C   0  0  0  0  0  0  0  0  0  0  0  0
  -18.2674  -15.4321    0.0000 C   0  0  0  0  0  0  0  0  0  0  0  0
  -19.4615  -14.5242    0.0000 C   0  0  0  0  0  0  0  0  0  0  0  0
  -19.2722  -13.0362    0.0000 C   0  0  0  0  0  0  0  0  0  0  0  0
  -15.0171  -11.1374    0.0000 C   0  0  0  0  0  0  0  0  0  0  0  0
  -15.4686  -12.5678    0.0000 O   0  0  0  0  0  0  0  0  0  0  0  0
  -13.5993  -11.6274    0.0000 N   0  0  0  0  0  0  0  0  0  0  0  0
  -12.1145  -11.8402    0.0000 C   0  0  0  0  0  0  0  0  0  0  0  0
  -12.9646  -13.0761    0.0000 C   0  0  0  0  0  0  0  0  0  0  0  0
  -12.3193  -14.4302    0.0000 C   0  0  0  0  0  0  0  0  0  0  0  0
  -10.8240  -14.5485    0.0000 C   0  0  0  0  0  0  0  0  0  0  0  0
  -10.1787  -15.9026    0.0000 C   0  0  0  0  0  0  0  0  0  0  0  0
  -11.0288  -17.1385    0.0000 C   0  0  0  0  0  0  0  0  0  0  0  0
  -12.5241  -17.0202    0.0000 C   0  0  0  0  0  0  0  0  0  0  0  0
  -13.1694  -15.6661    0.0000 C   0  0  0  0  0  0  0  0  0  0  0  0
  -10.6162  -11.7682    0.0000 C   0  0  0  0  0  0  0  0  0  0  0  0
  -10.2228  -13.2157    0.0000 O   0  0  0  0  0  0  0  0  0  0  0  0
   -9.1587  -11.4140    0.0000 N   0  0  0  0  0  0  0  0  0  0  0  0
   -7.7945  -10.7902    0.0000 C   0  0  0  0  0  0  0  0  0  0  0  0
   -7.8414  -12.2895    0.0000 C   0  0  0  0  0  0  0  0  0  0  0  0
   -6.5730   -9.9196    0.0000 C   0  0  0  0  0  0  0  0  0  0  0  0
   -5.5902  -11.0528    0.0000 O   0  0  0  0  0  0  0  0  0  0  0  0
   -5.5384   -8.8336    0.0000 N   0  0  0  0  0  0  0  0  0  0  0  0
   -4.7279   -7.5714    0.0000 C   0  0  0  0  0  0  0  0  0  0  0  0
   -3.9569   -8.8580    0.0000 C   0  0  0  0  0  0  0  0  0  0  0  0
   -2.4571   -8.8336    0.0000 C   0  0  0  0  0  0  0  0  0  0  0  0
   -1.6860  -10.1202    0.0000 C   0  0  0  0  0  0  0  0  0  0  0  0
   -1.0561   -8.2976    0.0000 C   0  0  0  0  0  0  0  0  0  0  0  0
   -4.1710   -6.1786    0.0000 C   0  0  0  0  0  0  0  0  0  0  0  0
   -2.6909   -6.4220    0.0000 O   0  0  0  0  0  0  0  0  0  0  0  0
   -3.8878   -4.7056    0.0000 N   0  0  0  0  0  0  0  0  0  0  0  0
   -3.8884   -3.2056    0.0000 C   0  0  0  0  0  0  0  0  0  0  0  0
   -4.1729   -1.7328    0.0000 C   0  0  0  0  0  0  0  0  0  0  0  0
   -4.7310   -0.3405    0.0000 C   0  0  0  0  0  0  0  0  0  0  0  0
   -5.5425    0.9211    0.0000 C   0  0  0  0  0  0  0  0  0  0  0  0
   -6.5781    2.0062    0.0000 C   0  0  0  0  0  0  0  0  0  0  0  0
   -2.5933   -2.4489    0.0000 C   0  0  0  0  0  0  0  0  0  0  0  0
   -2.5442   -3.8711    0.0000 C   0  0  0  0  0  0  0  0  0  0  0  0
   -2.2666   -5.3452    0.0000 O   0  0  0  0  0  0  0  0  0  0  0  0
   -1.2957   -3.0397    0.0000 N   0  0  0  0  0  0  0  0  0  0  0  0
    0.0486   -3.7052    0.0000 C   0  0  0  0  0  0  0  0  0  0  0  0
    1.0842   -4.7904    0.0000 C   0  0  0  0  0  0  0  0  0  0  0  0
    2.5418   -4.4361    0.0000 C   0  0  0  0  0  0  0  0  0  0  0  0
    3.5773   -5.5212    0.0000 O   0  0  0  0  0  0  0  0  0  0  0  0
    2.8576   -3.7042    0.0000 O   0  0  0  0  0  0  0  0  0  0  0  0
    1.2971   -2.8738    0.0000 C   0  0  0  0  0  0  0  0  0  0  0  0
    2.0493   -3.1377    0.0000 O   0  0  0  0  0  0  0  0  0  0  0  0
    1.2013   -1.3768    0.0000 N   0  0  0  0  0  0  0  0  0  0  0  0
    2.4498   -0.5454    0.0000 C   0  0  0  0  0  0  0  0  0  0  0  0
    3.9074   -0.1912    0.0000 C   0  0  0  0  0  0  0  0  0  0  0  0
    4.3294    1.2483    0.0000 C   0  0  0  0  0  0  0  0  0  0  0  0
    5.7870    1.6025    0.0000 C   0  0  0  0  0  0  0  0  0  0  0  0
    6.3812    2.9798    0.0000 N   0  0  0  0  0  0  0  0  0  0  0  0
    6.8225    0.5174    0.0000 O   0  0  0  0  0  0  0  0  0  0  0  0
    2.3541    0.9515    0.0000 C   0  0  0  0  0  0  0  0  0  0  0  0
    1.0098    1.6170    0.0000 O   0  0  0  0  0  0  0  0  0  0  0  0
    3.6026    1.7829    0.0000 N   0  0  0  0  0  0  0  0  0  0  0  0
    3.5068    3.2799    0.0000 C   0  0  0  0  0  0  0  0  0  0  0  0
    2.9048    4.6538    0.0000 C   0  0  0  0  0  0  0  0  0  0  0  0
    3.6397    5.9614    0.0000 C   0  0  0  0  0  0  0  0  0  0  0  0
    1.8692    5.7389    0.0000 C   0  0  0  0  0  0  0  0  0  0  0  0
    0.4116    5.3847    0.0000 C   0  0  0  0  0  0  0  0  0  0  0  0
    4.7553    4.1113    0.0000 C   0  0  0  0  0  0  0  0  0  0  0  0
    6.1707    3.6146    0.0000 O   0  0  0  0  0  0  0  0  0  0  0  0
    4.6595    5.6082    0.0000 N   0  0  0  0  0  0  0  0  0  0  0  0
    5.9080    6.4396    0.0000 C   0  0  0  0  0  0  0  0  0  0  0  0
    7.3656    6.7939    0.0000 C   0  0  0  0  0  0  0  0  0  0  0  0
    7.7876    8.2333    0.0000 C   0  0  0  0  0  0  0  0  0  0  0  0
    9.2451    8.5876    0.0000 O   0  0  0  0  0  0  0  0  0  0  0  0
    7.0453    9.5368    0.0000 O   0  0  0  0  0  0  0  0  0  0  0  0
    5.8122    7.9366    0.0000 C   0  0  0  0  0  0  0  0  0  0  0  0
    4.4679    8.6021    0.0000 O   0  0  0  0  0  0  0  0  0  0  0  0
    7.0607    8.7680    0.0000 N   0  0  0  0  0  0  0  0  0  0  0  0
    6.9649   10.2649    0.0000 C   0  0  0  0  0  0  0  0  0  0  0  0
    6.3630   11.6388    0.0000 C   0  0  0  0  0  0  0  0  0  0  0  0
    7.2518   12.8471    0.0000 C   0  0  0  0  0  0  0  0  0  0  0  0
    6.6498   14.2210    0.0000 C   0  0  0  0  0  0  0  0  0  0  0  0
    7.3848   15.5286    0.0000 N   0  0  0  0  0  0  0  0  0  0  0  0
    5.1590   14.3866    0.0000 O   0  0  0  0  0  0  0  0  0  0  0  0
    8.2134   11.0963    0.0000 C   0  0  0  0  0  0  0  0  0  0  0  0
    9.5577   10.4308    0.0000 O   0  0  0  0  0  0  0  0  0  0  0  0
    8.1177   12.5933    0.0000 N   0  0  0  0  0  0  0  0  0  0  0  0
    9.3662   13.4247    0.0000 C   0  0  0  0  0  0  0  0  0  0  0  0
   10.8237   13.7790    0.0000 C   0  0  0  0  0  0  0  0  0  0  0  0
   11.5660   12.4755    0.0000 C   0  0  0  0  0  0  0  0  0  0  0  0
   12.0722   14.6104    0.0000 C   0  0  0  0  0  0  0  0  0  0  0  0
   13.2155   13.6393    0.0000 C   0  0  0  0  0  0  0  0  0  0  0  0
    9.2704   14.9216    0.0000 C   0  0  0  0  0  0  0  0  0  0  0  0
    8.0173   15.7461    0.0000 O   0  0  0  0  0  0  0  0  0  0  0  0
   10.5189   15.7531    0.0000 N   0  0  0  0  0  0  0  0  0  0  0  0
   10.5801   17.2518    0.0000 C   0  0  0  0  0  0  0  0  0  0  0  0
   12.0244   17.6567    0.0000 C   0  0  0  0  0  0  0  0  0  0  0  0
   12.8558   16.4082    0.0000 C   0  0  0  0  0  0  0  0  0  0  0  0
   11.9254   15.2317    0.0000 C   0  0  0  0  0  0  0  0  0  0  0  0
   13.1927   14.4293    0.0000 C   0  0  0  0  0  0  0  0  0  0  0  0
   14.5213   15.1257    0.0000 O   0  0  0  0  0  0  0  0  0  0  0  0
   13.1315   12.9305    0.0000 N   0  0  0  0  0  0  0  0  0  0  0  0
   14.3988   12.1282    0.0000 C   0  0  0  0  0  0  0  0  0  0  0  0
   15.8642   11.8076    0.0000 C   0  0  0  0  0  0  0  0  0  0  0  0
   14.3376   10.6294    0.0000 C   0  0  0  0  0  0  0  0  0  0  0  0
   13.0091    9.9330    0.0000 O   0  0  0  0  0  0  0  0  0  0  0  0
   15.6050    9.8270    0.0000 N   0  0  0  0  0  0  0  0  0  0  0  0
   15.5437    8.3283    0.0000 C   0  0  0  0  0  0  0  0  0  0  0  0
   14.9736    6.9408    0.0000 C   0  0  0  0  0  0  0  0  0  0  0  0
   16.8111    7.5259    0.0000 C   0  0  0  0  0  0  0  0  0  0  0  0
   18.1397    8.2222    0.0000 O   0  0  0  0  0  0  0  0  0  0  0  0
   16.7499    6.0271    0.0000 N   0  0  0  0  0  0  0  0  0  0  0  0
   18.0172    5.2247    0.0000 C   0  0  0  0  0  0  0  0  0  0  0  0
   19.4826    4.9042    0.0000 C   0  0  0  0  0  0  0  0  0  0  0  0
   19.9376    3.4749    0.0000 C   0  0  0  0  0  0  0  0  0  0  0  0
   21.4030    3.1543    0.0000 C   0  0  0  0  0  0  0  0  0  0  0  0
   21.8581    1.7250    0.0000 C   0  0  0  0  0  0  0  0  0  0  0  0
   23.3234    1.4045    0.0000 N   0  0  0  0  0  0  0  0  0  0  0  0
   17.9560    3.7260    0.0000 C   0  0  0  0  0  0  0  0  0  0  0  0
   16.6274    3.0296    0.0000 O   0  0  0  0  0  0  0  0  0  0  0  0
   19.2233    2.9236    0.0000 N   0  0  0  0  0  0  0  0  0  0  0  0
   19.1621    1.4248    0.0000 C   0  0  0  0  0  0  0  0  0  0  0  0
   18.5920    0.0374    0.0000 C   0  0  0  0  0  0  0  0  0  0  0  0
   17.1054   -0.1626    0.0000 C   0  0  0  0  0  0  0  0  0  0  0  0
   16.5352   -1.5500    0.0000 C   0  0  0  0  0  0  0  0  0  0  0  0
   15.0486   -1.7500    0.0000 N   0  0  0  0  0  0  0  0  0  0  0  0
   14.4785   -3.1374    0.0000 C   0  0  0  0  0  0  0  0  0  0  0  0
   12.9919   -3.3373    0.0000 N   0  0  0  0  0  0  0  0  0  0  0  0
   15.3950   -4.3248    0.0000 N   0  0  0  0  0  0  0  0  0  0  0  0
   20.4295    0.6224    0.0000 C   0  0  0  0  0  0  0  0  0  0  0  0
   21.8870    0.9766    0.0000 O   0  0  0  0  0  0  0  0  0  0  0  0
   20.3682   -0.8763    0.0000 N   0  0  0  0  0  0  0  0  0  0  0  0
   21.6356   -1.6787    0.0000 C   0  0  0  0  0  0  0  0  0  0  0  0
   23.1009   -1.9993    0.0000 C   0  0  0  0  0  0  0  0  0  0  0  0
   23.7268   -3.3624    0.0000 C   0  0  0  0  0  0  0  0  0  0  0  0
   21.5744   -3.1775    0.0000 C   0  0  0  0  0  0  0  0  0  0  0  0
   20.2458   -3.8738    0.0000 O   0  0  0  0  0  0  0  0  0  0  0  0
   22.8417   -3.9799    0.0000 N   0  0  0  0  0  0  0  0  0  0  0  0
   22.7805   -5.4786    0.0000 C   0  0  0  0  0  0  0  0  0  0  0  0
   22.2104   -6.8660    0.0000 C   0  0  0  0  0  0  0  0  0  0  0  0
   20.7238   -7.0660    0.0000 C   0  0  0  0  0  0  0  0  0  0  0  0
   20.1536   -8.4534    0.0000 C   0  0  0  0  0  0  0  0  0  0  0  0
   18.6670   -8.6534    0.0000 C   0  0  0  0  0  0  0  0  0  0  0  0
   18.0969  -10.0408    0.0000 N   0  0  0  0  0  0  0  0  0  0  0  0
   24.0478   -6.2810    0.0000 C   0  0  0  0  0  0  0  0  0  0  0  0
   25.3764   -5.5846    0.0000 O   0  0  0  0  0  0  0  0  0  0  0  0
   23.9866   -7.7797    0.0000 N   0  0  0  0  0  0  0  0  0  0  0  0
   25.2540   -8.5821    0.0000 C   0  0  0  0  0  0  0  0  0  0  0  0
   26.7193   -8.9027    0.0000 C   0  0  0  0  0  0  0  0  0  0  0  0
   27.1744  -10.3320    0.0000 C   0  0  0  0  0  0  0  0  0  0  0  0
   28.6397  -10.6525    0.0000 C   0  0  0  0  0  0  0  0  0  0  0  0
   27.1132  -11.8307    0.0000 C   0  0  0  0  0  0  0  0  0  0  0  0
   25.1927  -10.0809    0.0000 C   0  0  0  0  0  0  0  0  0  0  0  0
   23.8642  -10.7772    0.0000 O   0  0  0  0  0  0  0  0  0  0  0  0
   26.4601  -10.8833    0.0000 N   0  0  0  0  0  0  0  0  0  0  0  0
   26.3989  -12.3820    0.0000 C   0  0  0  0  0  0  0  0  0  0  0  0
   25.8287  -13.7695    0.0000 C   0  0  0  0  0  0  0  0  0  0  0  0
   24.3421  -13.9694    0.0000 C   0  0  0  0  0  0  0  0  0  0  0  0
   23.7720  -15.3569    0.0000 O   0  0  0  0  0  0  0  0  0  0  0  0
   23.4256  -12.7820    0.0000 O   0  0  0  0  0  0  0  0  0  0  0  0
   27.6662  -13.1844    0.0000 C   0  0  0  0  0  0  0  0  0  0  0  0
   27.7881  -14.6795    0.0000 O   0  0  0  0  0  0  0  0  0  0  0  0
   29.0698  -12.6552    0.0000 O   0  0  0  0  0  0  0  0  0  0  0  0
  -32.8933    3.8187    0.0000 H   0  0  0  0  0  0  0  0  0  0  0  0
  -33.2641    6.3902    0.0000 H   0  0  0  0  0  0  0  0  0  0  0  0
  -30.8987    3.9263    0.0000 H   0  0  0  0  0  0  0  0  0  0  0  0
  -29.3834    5.1190    0.0000 H   0  0  0  0  0  0  0  0  0  0  0  0
  -31.7632    7.1250    0.0000 H   0  0  0  0  0  0  0  0  0  0  0  0
  -30.2479    8.3176    0.0000 H   0  0  0  0  0  0  0  0  0  0  0  0
  -29.3178    9.4821    0.0000 H   0  0  0  0  0  0  0  0  0  0  0  0
  -26.8156    7.1401    0.0000 H   0  0  0  0  0  0  0  0  0  0  0  0
  -27.1904   11.5636    0.0000 H   0  0  0  0  0  0  0  0  0  0  0  0
  -25.7527   10.2784    0.0000 H   0  0  0  0  0  0  0  0  0  0  0  0
  -30.6427   12.1024    0.0000 H   0  0  0  0  0  0  0  0  0  0  0  0
  -28.1747   12.9141    0.0000 H   0  0  0  0  0  0  0  0  0  0  0  0
  -25.8314    5.7896    0.0000 H   0  0  0  0  0  0  0  0  0  0  0  0
  -24.0859    5.2868    0.0000 H   0  0  0  0  0  0  0  0  0  0  0  0
  -23.6079    9.5720    0.0000 H   0  0  0  0  0  0  0  0  0  0  0  0
  -24.8087    8.2521    0.0000 H   0  0  0  0  0  0  0  0  0  0  0  0
  -20.5099    9.0237    0.0000 H   0  0  0  0  0  0  0  0  0  0  0  0
  -21.5259    7.3847    0.0000 H   0  0  0  0  0  0  0  0  0  0  0  0
  -23.5338    3.7692    0.0000 H   0  0  0  0  0  0  0  0  0  0  0  0
  -20.3036    4.9143    0.0000 H   0  0  0  0  0  0  0  0  0  0  0  0
  -22.2431    0.9529    0.0000 H   0  0  0  0  0  0  0  0  0  0  0  0
  -20.5852    1.6129    0.0000 H   0  0  0  0  0  0  0  0  0  0  0  0
  -23.3078    4.2096    0.0000 H   0  0  0  0  0  0  0  0  0  0  0  0
  -25.8229    1.7167    0.0000 H   0  0  0  0  0  0  0  0  0  0  0  0
  -24.8850    0.1986    0.0000 H   0  0  0  0  0  0  0  0  0  0  0  0
  -23.1590    0.6516    0.0000 H   0  0  0  0  0  0  0  0  0  0  0  0
  -24.7395    4.9938    0.0000 H   0  0  0  0  0  0  0  0  0  0  0  0
  -26.0717    3.8066    0.0000 H   0  0  0  0  0  0  0  0  0  0  0  0
  -25.3259    2.1855    0.0000 H   0  0  0  0  0  0  0  0  0  0  0  0
  -20.0520    0.8019    0.0000 H   0  0  0  0  0  0  0  0  0  0  0  0
  -16.5994    3.9403    0.0000 H   0  0  0  0  0  0  0  0  0  0  0  0
  -17.6248    3.2095    0.0000 H   0  0  0  0  0  0  0  0  0  0  0  0
  -15.0167    4.7167    0.0000 H   0  0  0  0  0  0  0  0  0  0  0  0
  -16.1619    4.1932    0.0000 H   0  0  0  0  0  0  0  0  0  0  0  0
  -13.3157    5.1796    0.0000 H   0  0  0  0  0  0  0  0  0  0  0  0
  -14.5392    4.8822    0.0000 H   0  0  0  0  0  0  0  0  0  0  0  0
  -11.5578    5.3122    0.0000 H   0  0  0  0  0  0  0  0  0  0  0  0
  -12.8155    5.2517    0.0000 H   0  0  0  0  0  0  0  0  0  0  0  0
   -9.8066    5.1097    0.0000 H   0  0  0  0  0  0  0  0  0  0  0  0
  -11.0530    5.2884    0.0000 H   0  0  0  0  0  0  0  0  0  0  0  0
   -8.0013    4.4446    0.0000 H   0  0  0  0  0  0  0  0  0  0  0  0
   -9.3154    4.9908    0.0000 H   0  0  0  0  0  0  0  0  0  0  0  0
   -7.0509    4.1751    0.0000 H   0  0  0  0  0  0  0  0  0  0  0  0
  -19.1303    3.6284    0.0000 H   0  0  0  0  0  0  0  0  0  0  0  0
  -17.5039    4.3783    0.0000 H   0  0  0  0  0  0  0  0  0  0  0  0
  -16.4295    3.4534    0.0000 H   0  0  0  0  0  0  0  0  0  0  0  0
  -20.3831   -0.3071    0.0000 H   0  0  0  0  0  0  0  0  0  0  0  0
  -20.8158   -3.1717    0.0000 H   0  0  0  0  0  0  0  0  0  0  0  0
  -21.4382   -0.2126    0.0000 H   0  0  0  0  0  0  0  0  0  0  0  0
  -19.6551   -0.2811    0.0000 H   0  0  0  0  0  0  0  0  0  0  0  0
  -23.5234   -1.8270    0.0000 H   0  0  0  0  0  0  0  0  0  0  0  0
  -22.2156   -0.4099    0.0000 H   0  0  0  0  0  0  0  0  0  0  0  0
  -22.1644   -4.8489    0.0000 H   0  0  0  0  0  0  0  0  0  0  0  0
  -20.8566   -3.4318    0.0000 H   0  0  0  0  0  0  0  0  0  0  0  0
  -24.8894   -2.7897    0.0000 H   0  0  0  0  0  0  0  0  0  0  0  0
  -25.8789   -7.1796    0.0000 H   0  0  0  0  0  0  0  0  0  0  0  0
  -26.6514   -4.6990    0.0000 H   0  0  0  0  0  0  0  0  0  0  0  0
  -23.5204   -7.6998    0.0000 H   0  0  0  0  0  0  0  0  0  0  0  0
  -21.7329   -5.5083    0.0000 H   0  0  0  0  0  0  0  0  0  0  0  0
  -20.9872   -5.3751    0.0000 H   0  0  0  0  0  0  0  0  0  0  0  0
  -19.9550   -8.1028    0.0000 H   0  0  0  0  0  0  0  0  0  0  0  0
  -21.8428   -5.8852    0.0000 H   0  0  0  0  0  0  0  0  0  0  0  0
  -20.3874   -5.1428    0.0000 H   0  0  0  0  0  0  0  0  0  0  0  0
  -23.0051   -7.7063    0.0000 H   0  0  0  0  0  0  0  0  0  0  0  0
  -18.6538  -10.3017    0.0000 H   0  0  0  0  0  0  0  0  0  0  0  0
  -16.4109  -11.8850    0.0000 H   0  0  0  0  0  0  0  0  0  0  0  0
  -19.1780  -11.2222    0.0000 H   0  0  0  0  0  0  0  0  0  0  0  0
  -18.3750   -9.6287    0.0000 H   0  0  0  0  0  0  0  0  0  0  0  0
  -15.2512  -12.9568    0.0000 H   0  0  0  0  0  0  0  0  0  0  0  0
  -15.6901  -15.7599    0.0000 H   0  0  0  0  0  0  0  0  0  0  0  0
  -18.4567  -16.9201    0.0000 H   0  0  0  0  0  0  0  0  0  0  0  0
  -20.8448  -15.1043    0.0000 H   0  0  0  0  0  0  0  0  0  0  0  0
  -20.4663  -12.1283    0.0000 H   0  0  0  0  0  0  0  0  0  0  0  0
  -14.1274  -13.0314    0.0000 H   0  0  0  0  0  0  0  0  0  0  0  0
  -11.3847  -13.1507    0.0000 H   0  0  0  0  0  0  0  0  0  0  0  0
  -14.0708  -14.0891    0.0000 H   0  0  0  0  0  0  0  0  0  0  0  0
  -14.2568  -12.3144    0.0000 H   0  0  0  0  0  0  0  0  0  0  0  0
   -9.8296  -13.4254    0.0000 H   0  0  0  0  0  0  0  0  0  0  0  0
   -8.6834  -16.0208    0.0000 H   0  0  0  0  0  0  0  0  0  0  0  0
  -10.3835  -18.4926    0.0000 H   0  0  0  0  0  0  0  0  0  0  0  0
  -13.3742  -18.2561    0.0000 H   0  0  0  0  0  0  0  0  0  0  0  0
  -14.6647  -15.5479    0.0000 H   0  0  0  0  0  0  0  0  0  0  0  0
   -8.8439  -12.8806    0.0000 H   0  0  0  0  0  0  0  0  0  0  0  0
   -6.4720  -11.4981    0.0000 H   0  0  0  0  0  0  0  0  0  0  0  0
   -6.5665  -13.0798    0.0000 H   0  0  0  0  0  0  0  0  0  0  0  0
   -8.2244  -13.7398    0.0000 H   0  0  0  0  0  0  0  0  0  0  0  0
   -9.3403  -12.3473    0.0000 H   0  0  0  0  0  0  0  0  0  0  0  0
   -4.4806   -9.8972    0.0000 H   0  0  0  0  0  0  0  0  0  0  0  0
   -3.2584   -7.2705    0.0000 H   0  0  0  0  0  0  0  0  0  0  0  0
   -3.6724  -10.3308    0.0000 H   0  0  0  0  0  0  0  0  0  0  0  0
   -5.1865   -9.7170    0.0000 H   0  0  0  0  0  0  0  0  0  0  0  0
   -2.3767   -7.3357    0.0000 H   0  0  0  0  0  0  0  0  0  0  0  0
   -0.1944  -10.2788    0.0000 H   0  0  0  0  0  0  0  0  0  0  0  0
   -1.4015  -11.5930    0.0000 H   0  0  0  0  0  0  0  0  0  0  0  0
   -3.0112  -10.8229    0.0000 H   0  0  0  0  0  0  0  0  0  0  0  0
    0.2151   -9.0940    0.0000 H   0  0  0  0  0  0  0  0  0  0  0  0
    0.0771   -7.3149    0.0000 H   0  0  0  0  0  0  0  0  0  0  0  0
   -1.8271   -7.0110    0.0000 H   0  0  0  0  0  0  0  0  0  0  0  0
   -2.4230   -5.0285    0.0000 H   0  0  0  0  0  0  0  0  0  0  0  0
   -2.6891   -1.9527    0.0000 H   0  0  0  0  0  0  0  0  0  0  0  0
   -3.1733   -0.6145    0.0000 H   0  0  0  0  0  0  0  0  0  0  0  0
   -3.2515   -0.0934    0.0000 H   0  0  0  0  0  0  0  0  0  0  0  0
   -3.8099    0.8434    0.0000 H   0  0  0  0  0  0  0  0  0  0  0  0
   -4.0833    1.2684    0.0000 H   0  0  0  0  0  0  0  0  0  0  0  0
   -5.0301    2.3308    0.0000 H   0  0  0  0  0  0  0  0  0  0  0  0
   -5.5963    3.1403    0.0000 H   0  0  0  0  0  0  0  0  0  0  0  0
   -2.4802   -0.7868    0.0000 H   0  0  0  0  0  0  0  0  0  0  0  0
   -1.3459   -1.6930    0.0000 H   0  0  0  0  0  0  0  0  0  0  0  0
   -1.7390   -3.4527    0.0000 H   0  0  0  0  0  0  0  0  0  0  0  0
   -1.2083   -1.5422    0.0000 H   0  0  0  0  0  0  0  0  0  0  0  0
   -0.8402   -4.9135    0.0000 H   0  0  0  0  0  0  0  0  0  0  0  0
    1.6862   -6.1643    0.0000 H   0  0  0  0  0  0  0  0  0  0  0  0
   -0.1643   -5.6218    0.0000 H   0  0  0  0  0  0  0  0  0  0  0  0
   -0.1429   -0.7113    0.0000 H   0  0  0  0  0  0  0  0  0  0  0  0
    3.0518   -1.9193    0.0000 H   0  0  0  0  0  0  0  0  0  0  0  0
    5.3982   -0.3568    0.0000 H   0  0  0  0  0  0  0  0  0  0  0  0
    4.0032   -1.6881    0.0000 H   0  0  0  0  0  0  0  0  0  0  0  0
    4.2336    2.7452    0.0000 H   0  0  0  0  0  0  0  0  0  0  0  0
    3.0909    2.0945    0.0000 H   0  0  0  0  0  0  0  0  0  0  0  0
    7.6665    3.3962    0.0000 H   0  0  0  0  0  0  0  0  0  0  0  0
    5.6649    4.4838    0.0000 H   0  0  0  0  0  0  0  0  0  0  0  0
    5.0679    1.4625    0.0000 H   0  0  0  0  0  0  0  0  0  0  0  0
    2.0492    2.9256    0.0000 H   0  0  0  0  0  0  0  0  0  0  0  0
    1.7670    3.6764    0.0000 H   0  0  0  0  0  0  0  0  0  0  0  0
    3.3636    7.2991    0.0000 H   0  0  0  0  0  0  0  0  0  0  0  0
    5.0421    6.6935    0.0000 H   0  0  0  0  0  0  0  0  0  0  0  0
    5.2644    5.5673    0.0000 H   0  0  0  0  0  0  0  0  0  0  0  0
    1.2672    7.1128    0.0000 H   0  0  0  0  0  0  0  0  0  0  0  0
    2.8794    6.8477    0.0000 H   0  0  0  0  0  0  0  0  0  0  0  0
   -0.6239    6.4698    0.0000 H   0  0  0  0  0  0  0  0  0  0  0  0
   -0.8369    4.5533    0.0000 H   0  0  0  0  0  0  0  0  0  0  0  0
    0.8417    3.9476    0.0000 H   0  0  0  0  0  0  0  0  0  0  0  0
    3.5162    6.5792    0.0000 H   0  0  0  0  0  0  0  0  0  0  0  0
    6.5100    5.0657    0.0000 H   0  0  0  0  0  0  0  0  0  0  0  0
    8.8564    6.6283    0.0000 H   0  0  0  0  0  0  0  0  0  0  0  0
    7.4613    5.2970    0.0000 H   0  0  0  0  0  0  0  0  0  0  0  0
    8.5261    8.4475    0.0000 H   0  0  0  0  0  0  0  0  0  0  0  0
    5.5074    9.9107    0.0000 H   0  0  0  0  0  0  0  0  0  0  0  0
    5.3274   12.7240    0.0000 H   0  0  0  0  0  0  0  0  0  0  0  0
    5.1145   10.8074    0.0000 H   0  0  0  0  0  0  0  0  0  0  0  0
    8.5003   13.6785    0.0000 H   0  0  0  0  0  0  0  0  0  0  0  0
    8.6757   12.3753    0.0000 H   0  0  0  0  0  0  0  0  0  0  0  0
    6.9367   16.8032    0.0000 H   0  0  0  0  0  0  0  0  0  0  0  0
    9.0447   15.6696    0.0000 H   0  0  0  0  0  0  0  0  0  0  0  0
    6.9744   13.5643    0.0000 H   0  0  0  0  0  0  0  0  0  0  0  0
    9.7962   11.9877    0.0000 H   0  0  0  0  0  0  0  0  0  0  0  0
   10.5721   15.2577    0.0000 H   0  0  0  0  0  0  0  0  0  0  0  0
   13.3604   12.4841    0.0000 H   0  0  0  0  0  0  0  0  0  0  0  0
   12.4613   11.3199    0.0000 H   0  0  0  0  0  0  0  0  0  0  0  0
   10.7215   11.7164    0.0000 H   0  0  0  0  0  0  0  0  0  0  0  0
   13.2270   15.5677    0.0000 H   0  0  0  0  0  0  0  0  0  0  0  0
   11.3300   15.9139    0.0000 H   0  0  0  0  0  0  0  0  0  0  0  0
   14.7928   14.5911    0.0000 H   0  0  0  0  0  0  0  0  0  0  0  0
   14.6494   13.3547    0.0000 H   0  0  0  0  0  0  0  0  0  0  0  0
   12.8970   12.5500    0.0000 H   0  0  0  0  0  0  0  0  0  0  0  0
    9.0832   17.1560    0.0000 H   0  0  0  0  0  0  0  0  0  0  0  0
   10.3284   18.7305    0.0000 H   0  0  0  0  0  0  0  0  0  0  0  0
   11.4708   19.0508    0.0000 H   0  0  0  0  0  0  0  0  0  0  0  0
   13.3530   18.3531    0.0000 H   0  0  0  0  0  0  0  0  0  0  0  0
   14.0106   17.3656    0.0000 H   0  0  0  0  0  0  0  0  0  0  0  0
   14.0485   15.4985    0.0000 H   0  0  0  0  0  0  0  0  0  0  0  0
   11.6049   13.7663    0.0000 H   0  0  0  0  0  0  0  0  0  0  0  0
   12.0109   11.9334    0.0000 H   0  0  0  0  0  0  0  0  0  0  0  0
   15.1338   13.4357    0.0000 H   0  0  0  0  0  0  0  0  0  0  0  0
   16.8013   10.6364    0.0000 H   0  0  0  0  0  0  0  0  0  0  0  0
   17.3508   12.0076    0.0000 H   0  0  0  0  0  0  0  0  0  0  0  0
   15.9254   13.3064    0.0000 H   0  0  0  0  0  0  0  0  0  0  0  0
   17.0085   10.3562    0.0000 H   0  0  0  0  0  0  0  0  0  0  0  0
   14.0784    8.6488    0.0000 H   0  0  0  0  0  0  0  0  0  0  0  0
   13.4870    6.7409    0.0000 H   0  0  0  0  0  0  0  0  0  0  0  0
   14.7302    5.4607    0.0000 H   0  0  0  0  0  0  0  0  0  0  0  0
   16.3179    6.2752    0.0000 H   0  0  0  0  0  0  0  0  0  0  0  0
   15.5161    5.1740    0.0000 H   0  0  0  0  0  0  0  0  0  0  0  0
   18.5873    6.6121    0.0000 H   0  0  0  0  0  0  0  0  0  0  0  0
   20.9337    5.2839    0.0000 H   0  0  0  0  0  0  0  0  0  0  0  0
   19.5438    6.4029    0.0000 H   0  0  0  0  0  0  0  0  0  0  0  0
   19.6942    1.9948    0.0000 H   0  0  0  0  0  0  0  0  0  0  0  0
   18.7190    2.6003    0.0000 H   0  0  0  0  0  0  0  0  0  0  0  0
   22.8541    3.5340    0.0000 H   0  0  0  0  0  0  0  0  0  0  0  0
   21.6464    4.6344    0.0000 H   0  0  0  0  0  0  0  0  0  0  0  0
   21.9800    0.2300    0.0000 H   0  0  0  0  0  0  0  0  0  0  0  0
   20.4069    1.3453    0.0000 H   0  0  0  0  0  0  0  0  0  0  0  0
   23.6009   -0.0696    0.0000 H   0  0  0  0  0  0  0  0  0  0  0  0
   24.8100    1.6044    0.0000 H   0  0  0  0  0  0  0  0  0  0  0  0
   23.5669    2.8846    0.0000 H   0  0  0  0  0  0  0  0  0  0  0  0
   20.6809    3.2778    0.0000 H   0  0  0  0  0  0  0  0  0  0  0  0
   17.7468    1.9216    0.0000 H   0  0  0  0  0  0  0  0  0  0  0  0
   18.5308   -1.4613    0.0000 H   0  0  0  0  0  0  0  0  0  0  0  0
   19.9362   -0.6282    0.0000 H   0  0  0  0  0  0  0  0  0  0  0  0
   15.6400    0.1580    0.0000 H   0  0  0  0  0  0  0  0  0  0  0  0
   16.9834    1.3325    0.0000 H   0  0  0  0  0  0  0  0  0  0  0  0
   16.4740   -3.0487    0.0000 H   0  0  0  0  0  0  0  0  0  0  0  0
   17.9506   -2.0468    0.0000 H   0  0  0  0  0  0  0  0  0  0  0  0
   14.1322   -0.5625    0.0000 H   0  0  0  0  0  0  0  0  0  0  0  0
   12.4218   -4.7248    0.0000 H   0  0  0  0  0  0  0  0  0  0  0  0
   12.0754   -2.1499    0.0000 H   0  0  0  0  0  0  0  0  0  0  0  0
   14.8249   -5.7123    0.0000 H   0  0  0  0  0  0  0  0  0  0  0  0
   16.8816   -4.1249    0.0000 H   0  0  0  0  0  0  0  0  0  0  0  0
   19.1345   -1.7294    0.0000 H   0  0  0  0  0  0  0  0  0  0  0  0
   22.3706   -0.3711    0.0000 H   0  0  0  0  0  0  0  0  0  0  0  0
   24.5876   -1.7993    0.0000 H   0  0  0  0  0  0  0  0  0  0  0  0
   22.9790   -0.5042    0.0000 H   0  0  0  0  0  0  0  0  0  0  0  0
   25.0214   -3.7491    0.0000 H   0  0  0  0  0  0  0  0  0  0  0  0
   23.4948   -4.9273    0.0000 H   0  0  0  0  0  0  0  0  0  0  0  0
   22.3374   -4.3032    0.0000 H   0  0  0  0  0  0  0  0  0  0  0  0
   24.2453   -3.4506    0.0000 H   0  0  0  0  0  0  0  0  0  0  0  0
   21.3651   -4.9818    0.0000 H   0  0  0  0  0  0  0  0  0  0  0  0
   22.1491   -8.3648    0.0000 H   0  0  0  0  0  0  0  0  0  0  0  0
   23.5546   -7.5316    0.0000 H   0  0  0  0  0  0  0  0  0  0  0  0
   19.3084   -6.5692    0.0000 H   0  0  0  0  0  0  0  0  0  0  0  0
   20.6018   -5.5710    0.0000 H   0  0  0  0  0  0  0  0  0  0  0  0
   20.2755   -9.9485    0.0000 H   0  0  0  0  0  0  0  0  0  0  0  0
   21.5690   -8.9502    0.0000 H   0  0  0  0  0  0  0  0  0  0  0  0
   17.2017   -8.3328    0.0000 H   0  0  0  0  0  0  0  0  0  0  0  0
   18.5451   -7.1583    0.0000 H   0  0  0  0  0  0  0  0  0  0  0  0
   16.6103  -10.2408    0.0000 H   0  0  0  0  0  0  0  0  0  0  0  0
   18.0357  -11.5396    0.0000 H   0  0  0  0  0  0  0  0  0  0  0  0
   19.5122  -10.5376    0.0000 H   0  0  0  0  0  0  0  0  0  0  0  0
   22.7528   -8.6329    0.0000 H   0  0  0  0  0  0  0  0  0  0  0  0
   25.8241   -7.1947    0.0000 H   0  0  0  0  0  0  0  0  0  0  0  0
   28.1705   -8.5230    0.0000 H   0  0  0  0  0  0  0  0  0  0  0  0
   26.7805   -7.4039    0.0000 H   0  0  0  0  0  0  0  0  0  0  0  0
   25.9558  -11.2066    0.0000 H   0  0  0  0  0  0  0  0  0  0  0  0
   29.4271  -11.9292    0.0000 H   0  0  0  0  0  0  0  0  0  0  0  0
   30.1264  -10.4526    0.0000 H   0  0  0  0  0  0  0  0  0  0  0  0
   28.8832   -9.1724    0.0000 H   0  0  0  0  0  0  0  0  0  0  0  0
   25.9926  -12.8279    0.0000 H   0  0  0  0  0  0  0  0  0  0  0  0
   28.0503  -13.0019    0.0000 H   0  0  0  0  0  0  0  0  0  0  0  0
   28.6131  -11.8135    0.0000 H   0  0  0  0  0  0  0  0  0  0  0  0
   27.9177  -10.5291    0.0000 H   0  0  0  0  0  0  0  0  0  0  0  0
   24.9335  -12.0615    0.0000 H   0  0  0  0  0  0  0  0  0  0  0  0
   25.7675  -15.2682    0.0000 H   0  0  0  0  0  0  0  0  0  0  0  0
   27.1730  -14.4351    0.0000 H   0  0  0  0  0  0  0  0  0  0  0  0
  1  2  1  0
  2  3  1  0
  3  4  1  0
  4  5  2  0
  4  6  1  0
  6  7  1  0
  7  8  1  0
  8  9  1  0
  9 10  1  0
  9 11  2  0
  7 12  1  0
 12 13  2  0
 12 14  1  0
 14 15  1  0
 15 16  1  0
 16 17  1  0
 17 18  1  0
 18 19  2  0
 18 20  1  0
 15 21  1  0
 21 22  2  0
 21 23  1  0
 23 24  1  0
 24 25  1  0
 25 26  1  0
 26 27  1  0
 26 28  1  0
 24 29  1  0
 29 30  2  0
 29 31  1  0
 32 31  1  6
 32 33  1  0
 33 34  1  0
 34 35  1  0
 35 36  1  0
 36 37  1  0
 37 38  1  0
 38 39  1  0
 32 40  1  0
 32 41  1  0
 41 42  2  0
 41 43  1  0
 43 44  1  0
 44 45  1  0
 45 46  1  0
 46 47  1  0
 47 48  1  0
 48 49  1  0
 49 50  2  3
 49 51  1  0
 44 52  1  0
 52 53  2  0
 52 54  1  0
 54 55  1  0
 55 56  1  0
 56 57  1  0
 55 58  1  0
 58 59  2  0
 58 60  1  0
 60 61  1  0
 61 62  1  0
 62 63  1  0
 63 64  2  0
 64 65  1  0
 65 66  2  0
 66 67  1  0
 67 68  2  0
 61 69  1  0
 69 70  2  0
 69 71  1  0
 71 72  1  0
 72 73  1  0
 73 74  1  0
 74 75  2  0
 75 76  1  0
 76 77  2  0
 77 78  1  0
 78 79  2  0
 72 80  1  0
 80 81  2  0
 80 82  1  0
 82 83  1  0
 83 84  1  0
 83 85  1  0
 85 86  2  0
 85 87  1  0
 87 88  1  0
 88 89  1  0
 89 90  1  0
 90 91  1  0
 90 92  1  0
 88 93  1  0
 93 94  2  0
 93 95  1  0
 95 96  1  0
 96 97  1  0
 97 98  1  0
 98 99  1  0
 99100  1  0
 96101  1  0
 96102  1  1
102103  2  0
102104  1  0
104105  1  0
105106  1  0
106107  1  0
107108  2  0
107109  1  0
105110  1  0
110111  2  0
110112  1  0
112113  1  0
113114  1  0
114115  1  0
115116  1  0
116117  1  0
116118  2  0
113119  1  0
119120  2  0
119121  1  0
121122  1  0
122123  1  0
123124  1  0
123125  1  0
125126  1  0
122127  1  0
127128  2  0
127129  1  0
129130  1  0
130131  1  0
131132  1  0
132133  2  0
132134  1  0
130135  1  0
135136  2  0
135137  1  0
137138  1  0
138139  1  0
139140  1  0
140141  1  0
141142  1  0
141143  2  0
138144  1  0
144145  2  0
144146  1  0
146147  1  0
147148  1  0
148149  1  0
148150  1  0
150151  1  0
147152  1  0
152153  2  0
152154  1  0
154155  1  0
155156  1  0
156157  1  0
157158  1  0
158159  1  0
159160  2  0
159161  1  0
161162  1  0
162163  1  0
162164  1  0
164165  2  0
164166  1  0
166167  1  0
167168  1  0
167169  1  0
169170  2  0
169171  1  0
171172  1  0
172173  1  0
173174  1  0
174175  1  0
175176  1  0
176177  1  0
172178  1  0
178179  2  0
178180  1  0
180181  1  0
181182  1  0
182183  1  0
183184  1  0
184185  1  0
185186  1  0
186187  2  3
186188  1  0
181189  1  0
189190  2  0
189191  1  0
191192  1  0
192193  1  0
193194  1  0
192195  1  0
195196  2  0
195197  1  0
197198  1  0
198199  1  0
199200  1  0
200201  1  0
201202  1  0
202203  1  0
198204  1  0
204205  2  0
204206  1  0
206207  1  0
207208  1  0
208209  1  0
209210  1  0
209211  1  0
207212  1  0
212213  2  0
212214  1  0
214215  1  0
215216  1  0
216217  1  0
217218  2  0
217219  1  0
215220  1  0
220221  2  0
220222  1  0
 68 63  1  0
 79 74  1  0
158154  1  0
 39100  2  0
  1223  1  0
  1224  1  0
  2225  1  0
  2226  1  0
  3227  1  0
  3228  1  0
  6229  1  0
  7230  1  1
  8231  1  0
  8232  1  0
 10233  1  0
 10234  1  0
 14235  1  0
 15236  1  1
 16237  1  0
 16238  1  0
 17239  1  0
 17240  1  0
 23241  1  0
 24242  1  6
 25243  1  0
 25244  1  0
 26245  1  0
 27246  1  0
 27247  1  0
 27248  1  0
 28249  1  0
 28250  1  0
 28251  1  0
 31252  1  0
 33253  1  0
 33254  1  0
 34255  1  0
 34256  1  0
 35257  1  0
 35258  1  0
 36259  1  0
 36260  1  0
 37261  1  0
 37262  1  0
 38263  1  0
 38264  1  0
 39265  1  0
 40266  1  0
 40267  1  0
 40268  1  0
 43269  1  0
 44270  1  6
 45271  1  0
 45272  1  0
 46273  1  0
 46274  1  0
 47275  1  0
 47276  1  0
 48277  1  0
 50278  1  0
 50279  1  0
 51280  1  0
 51281  1  0
 54282  1  0
 55283  1  6
 56284  1  0
 56285  1  0
 57286  1  0
 60287  1  0
 61288  1  6
 62289  1  0
 62290  1  0
 64291  1  0
 65292  1  0
 66293  1  0
 67294  1  0
 68295  1  0
 71296  1  0
 72297  1  6
 73298  1  0
 73299  1  0
 75300  1  0
 76301  1  0
 77302  1  0
 78303  1  0
 79304  1  0
 82305  1  0
 83306  1  6
 84307  1  0
 84308  1  0
 84309  1  0
 87310  1  0
 88311  1  6
 89312  1  0
 89313  1  0
 90314  1  0
 91315  1  0
 91316  1  0
 91317  1  0
 92318  1  0
 92319  1  0
 92320  1  0
 95321  1  0
 97322  1  0
 97323  1  0
 98324  1  0
 98325  1  0
 99326  1  0
 99327  1  0
100328  1  0
101329  1  0
101330  1  0
101331  1  0
104332  1  0
105333  1  6
106334  1  0
106335  1  0
112336  1  0
113337  1  6
114338  1  0
114339  1  0
115340  1  0
115341  1  0
117342  1  0
117343  1  0
121344  1  0
122345  1  1
123346  1  1
124347  1  0
124348  1  0
124349  1  0
125350  1  0
125351  1  0
126352  1  0
126353  1  0
126354  1  0
129355  1  0
130356  1  6
131357  1  0
131358  1  0
137359  1  0
138360  1  1
139361  1  0
139362  1  0
140363  1  0
140364  1  0
142365  1  0
142366  1  0
146367  1  0
147368  1  6
148369  1  1
149370  1  0
149371  1  0
149372  1  0
150373  1  0
150374  1  0
151375  1  0
151376  1  0
151377  1  0
155378  1  0
155379  1  0
156380  1  0
156381  1  0
157382  1  0
157383  1  0
158384  1  0
161385  1  0
162386  1  1
163387  1  0
163388  1  0
163389  1  0
166390  1  0
167391  1  6
168392  1  0
168393  1  0
168394  1  0
171395  1  0
172396  1  1
173397  1  0
173398  1  0
174399  1  0
174400  1  0
175401  1  0
175402  1  0
176403  1  0
176404  1  0
177405  1  0
177406  1  0
177407  1  0
180408  1  0
181409  1  6
182410  1  0
182411  1  0
183412  1  0
183413  1  0
184414  1  0
184415  1  0
185416  1  0
187417  1  0
187418  1  0
188419  1  0
188420  1  0
191421  1  0
192422  1  1
193423  1  0
193424  1  0
194425  1  0
194426  1  0
194427  1  0
197428  1  0
198429  1  6
199430  1  0
199431  1  0
200432  1  0
200433  1  0
201434  1  0
201435  1  0
202436  1  0
202437  1  0
203438  1  0
203439  1  0
203440  1  0
206441  1  0
207442  1  1
208443  1  0
208444  1  0
209445  1  0
210446  1  0
210447  1  0
210448  1  0
211449  1  0
211450  1  0
211451  1  0
214452  1  0
215453  1  6
216454  1  0
216455  1  0
M  CHG  8  20  -1  50   1 109  -1 134  -1 177   1 187   1 203   1 219  -1
M  CHG  1 222  -1
M  END
