
     RDKit          2D

309320  0  0  0  0  0  0  0  0999 V2000
  -26.4279   -3.6304    0.0000 C   0  0  0  0  0  0  0  0  0  0  0  0
  -27.2805   -4.8645    0.0000 N   0  0  0  0  0  0  0  0  0  0  0  0
  -28.7756   -4.7432    0.0000 C   0  0  0  0  0  0  0  0  0  0  0  0
  -29.4181   -3.3877    0.0000 C   0  0  0  0  0  0  0  0  0  0  0  0
  -30.9131   -3.2664    0.0000 C   0  0  0  0  0  0  0  0  0  0  0  0
  -31.7658   -4.5005    0.0000 C   0  0  0  0  0  0  0  0  0  0  0  0
  -31.1233   -5.8559    0.0000 C   0  0  0  0  0  0  0  0  0  0  0  0
  -29.6283   -5.9773    0.0000 C   0  0  0  0  0  0  0  0  0  0  0  0
  -32.2139   -6.8858    0.0000 C   0  0  0  0  0  0  0  0  0  0  0  0
  -33.5304   -6.1668    0.0000 O   0  0  0  0  0  0  0  0  0  0  0  0
  -33.2534   -4.6926    0.0000 C   0  0  0  0  0  0  0  0  0  0  0  0
  -34.2833   -3.6020    0.0000 O   0  0  0  0  0  0  0  0  0  0  0  0
  -33.4062   -7.7960    0.0000 C   0  0  0  0  0  0  0  0  0  0  0  0
  -33.2141   -9.2836    0.0000 C   0  0  0  0  0  0  0  0  0  0  0  0
  -34.4063  -10.1938    0.0000 C   0  0  0  0  0  0  0  0  0  0  0  0
  -35.7907   -9.6164    0.0000 C   0  0  0  0  0  0  0  0  0  0  0  0
  -35.9829   -8.1288    0.0000 C   0  0  0  0  0  0  0  0  0  0  0  0
  -34.7906   -7.2186    0.0000 C   0  0  0  0  0  0  0  0  0  0  0  0
  -36.9830  -10.5266    0.0000 O   0  0  0  0  0  0  0  0  0  0  0  0
  -31.8297   -9.8611    0.0000 O   0  0  0  0  0  0  0  0  0  0  0  0
  -30.6374   -8.9508    0.0000 C   0  0  0  0  0  0  0  0  0  0  0  0
  -30.8295   -7.4632    0.0000 C   0  0  0  0  0  0  0  0  0  0  0  0
  -29.5476   -7.2472    0.0000 C   0  0  0  0  0  0  0  0  0  0  0  0
  -28.8092   -7.5552    0.0000 C   0  0  0  0  0  0  0  0  0  0  0  0
  -28.7068   -8.3486    0.0000 C   0  0  0  0  0  0  0  0  0  0  0  0
  -29.3427   -8.8340    0.0000 C   0  0  0  0  0  0  0  0  0  0  0  0
  -26.6763   -9.1955    0.0000 O   0  0  0  0  0  0  0  0  0  0  0  0
  -27.0703   -2.2750    0.0000 S   0  0  0  0  0  0  0  0  0  0  0  0
  -24.9328   -3.7518    0.0000 N   0  0  0  0  0  0  0  0  0  0  0  0
  -24.0802   -2.5177    0.0000 C   0  0  0  0  0  0  0  0  0  0  0  0
  -22.5851   -2.6391    0.0000 C   0  0  0  0  0  0  0  0  0  0  0  0
  -21.7324   -1.4050    0.0000 C   0  0  0  0  0  0  0  0  0  0  0  0
  -22.3749   -0.0495    0.0000 O   0  0  0  0  0  0  0  0  0  0  0  0
  -20.2374   -1.5263    0.0000 N   0  0  0  0  0  0  0  0  0  0  0  0
  -19.3847   -0.2922    0.0000 C   0  0  0  0  0  0  0  0  0  0  0  0
  -19.0056    1.1591    0.0000 C   0  0  0  0  0  0  0  0  0  0  0  0
  -17.8896   -0.4136    0.0000 C   0  0  0  0  0  0  0  0  0  0  0  0
  -17.4172   -1.8373    0.0000 O   0  0  0  0  0  0  0  0  0  0  0  0
  -17.0370    0.8205    0.0000 N   0  0  0  0  0  0  0  0  0  0  0  0
  -15.5419    0.6991    0.0000 C   0  0  0  0  0  0  0  0  0  0  0  0
  -14.6436   -0.5021    0.0000 C   0  0  0  0  0  0  0  0  0  0  0  0
  -13.4312   -1.3853    0.0000 C   0  0  0  0  0  0  0  0  0  0  0  0
  -12.0123   -1.8718    0.0000 C   0  0  0  0  0  0  0  0  0  0  0  0
  -10.5130   -1.9185    0.0000 C   0  0  0  0  0  0  0  0  0  0  0  0
  -16.4221   -0.5155    0.0000 C   0  0  0  0  0  0  0  0  0  0  0  0
  -16.0462    2.1118    0.0000 C   0  0  0  0  0  0  0  0  0  0  0  0
  -17.5442    2.1885    0.0000 O   0  0  0  0  0  0  0  0  0  0  0  0
  -16.1117    3.6104    0.0000 N   0  0  0  0  0  0  0  0  0  0  0  0
  -15.7325    5.0617    0.0000 C   0  0  0  0  0  0  0  0  0  0  0  0
  -16.5698    6.3063    0.0000 C   0  0  0  0  0  0  0  0  0  0  0  0
  -18.0663    6.2034    0.0000 O   0  0  0  0  0  0  0  0  0  0  0  0
  -14.9425    6.3368    0.0000 C   0  0  0  0  0  0  0  0  0  0  0  0
  -16.0855    7.3080    0.0000 O   0  0  0  0  0  0  0  0  0  0  0  0
  -13.8117    7.3223    0.0000 N   0  0  0  0  0  0  0  0  0  0  0  0
  -12.4406    7.9308    0.0000 C   0  0  0  0  0  0  0  0  0  0  0  0
  -11.9896    9.3613    0.0000 C   0  0  0  0  0  0  0  0  0  0  0  0
  -13.0030   10.4672    0.0000 O   0  0  0  0  0  0  0  0  0  0  0  0
  -10.9511    8.1080    0.0000 C   0  0  0  0  0  0  0  0  0  0  0  0
  -10.9044    9.6073    0.0000 O   0  0  0  0  0  0  0  0  0  0  0  0
   -9.4756    7.8384    0.0000 N   0  0  0  0  0  0  0  0  0  0  0  0
   -8.1450    7.1458    0.0000 C   0  0  0  0  0  0  0  0  0  0  0  0
   -6.7453    7.6852    0.0000 C   0  0  0  0  0  0  0  0  0  0  0  0
   -6.5126    9.1670    0.0000 C   0  0  0  0  0  0  0  0  0  0  0  0
   -5.1129    9.7064    0.0000 C   0  0  0  0  0  0  0  0  0  0  0  0
   -4.8802   11.1882    0.0000 C   0  0  0  0  0  0  0  0  0  0  0  0
   -6.0471   12.1307    0.0000 C   0  0  0  0  0  0  0  0  0  0  0  0
   -7.4468   11.5913    0.0000 C   0  0  0  0  0  0  0  0  0  0  0  0
   -7.6795   10.1095    0.0000 C   0  0  0  0  0  0  0  0  0  0  0  0
   -7.0777    6.0919    0.0000 C   0  0  0  0  0  0  0  0  0  0  0  0
   -5.8764    6.9901    0.0000 O   0  0  0  0  0  0  0  0  0  0  0  0
   -6.3685    4.7701    0.0000 N   0  0  0  0  0  0  0  0  0  0  0  0
   -6.0804    3.2980    0.0000 C   0  0  0  0  0  0  0  0  0  0  0  0
   -6.2390    1.8064    0.0000 C   0  0  0  0  0  0  0  0  0  0  0  0
   -6.8302    0.4279    0.0000 C   0  0  0  0  0  0  0  0  0  0  0  0
   -7.8015   -0.7152    0.0000 C   0  0  0  0  0  0  0  0  0  0  0  0
   -9.0666   -1.5212    0.0000 C   0  0  0  0  0  0  0  0  0  0  0  0
   -4.8571    4.1661    0.0000 C   0  0  0  0  0  0  0  0  0  0  0  0
   -4.7861    2.5400    0.0000 C   0  0  0  0  0  0  0  0  0  0  0  0
   -4.4321    1.0824    0.0000 O   0  0  0  0  0  0  0  0  0  0  0  0
   -3.4824    3.2819    0.0000 N   0  0  0  0  0  0  0  0  0  0  0  0
   -2.1880    2.5239    0.0000 C   0  0  0  0  0  0  0  0  0  0  0  0
   -1.2310    1.3689    0.0000 C   0  0  0  0  0  0  0  0  0  0  0  0
   -1.7527   -0.0375    0.0000 C   0  0  0  0  0  0  0  0  0  0  0  0
   -0.7957   -1.1925    0.0000 O   0  0  0  0  0  0  0  0  0  0  0  0
   -3.2315   -0.2888    0.0000 O   0  0  0  0  0  0  0  0  0  0  0  0
   -0.8844    3.2658    0.0000 C   0  0  0  0  0  0  0  0  0  0  0  0
   -0.8751    4.7658    0.0000 O   0  0  0  0  0  0  0  0  0  0  0  0
    0.4100    2.5078    0.0000 N   0  0  0  0  0  0  0  0  0  0  0  0
    1.7137    3.2497    0.0000 C   0  0  0  0  0  0  0  0  0  0  0  0
    2.6849    4.3928    0.0000 C   0  0  0  0  0  0  0  0  0  0  0  0
    4.1605    4.1232    0.0000 C   0  0  0  0  0  0  0  0  0  0  0  0
    4.6648    2.7105    0.0000 C   0  0  0  0  0  0  0  0  0  0  0  0
    6.1404    2.4409    0.0000 C   0  0  0  0  0  0  0  0  0  0  0  0
    7.1117    3.5839    0.0000 C   0  0  0  0  0  0  0  0  0  0  0  0
    6.6074    4.9966    0.0000 C   0  0  0  0  0  0  0  0  0  0  0  0
    5.1318    5.2663    0.0000 C   0  0  0  0  0  0  0  0  0  0  0  0
    3.0080    2.4917    0.0000 C   0  0  0  0  0  0  0  0  0  0  0  0
    2.6361    1.0386    0.0000 O   0  0  0  0  0  0  0  0  0  0  0  0
    4.3117    3.2336    0.0000 N   0  0  0  0  0  0  0  0  0  0  0  0
    5.6061    2.4756    0.0000 C   0  0  0  0  0  0  0  0  0  0  0  0
    6.5631    1.3206    0.0000 C   0  0  0  0  0  0  0  0  0  0  0  0
    6.0413   -0.0857    0.0000 C   0  0  0  0  0  0  0  0  0  0  0  0
    4.5625   -0.3371    0.0000 C   0  0  0  0  0  0  0  0  0  0  0  0
    4.0408   -1.7434    0.0000 C   0  0  0  0  0  0  0  0  0  0  0  0
    4.9978   -2.8984    0.0000 C   0  0  0  0  0  0  0  0  0  0  0  0
    6.4766   -2.6471    0.0000 C   0  0  0  0  0  0  0  0  0  0  0  0
    6.9984   -1.2408    0.0000 C   0  0  0  0  0  0  0  0  0  0  0  0
    6.9097    3.2175    0.0000 C   0  0  0  0  0  0  0  0  0  0  0  0
    7.2817    4.6707    0.0000 O   0  0  0  0  0  0  0  0  0  0  0  0
    8.2041    2.4595    0.0000 N   0  0  0  0  0  0  0  0  0  0  0  0
    9.5077    3.2014    0.0000 C   0  0  0  0  0  0  0  0  0  0  0  0
   10.4790    4.3445    0.0000 C   0  0  0  0  0  0  0  0  0  0  0  0
   11.9546    4.0749    0.0000 C   0  0  0  0  0  0  0  0  0  0  0  0
   13.0400    5.1102    0.0000 C   0  0  0  0  0  0  0  0  0  0  0  0
   14.3601    4.3978    0.0000 N   0  0  0  0  0  0  0  0  0  0  0  0
   14.0905    2.9222    0.0000 C   0  0  0  0  0  0  0  0  0  0  0  0
   12.6038    2.7227    0.0000 N   0  0  0  0  0  0  0  0  0  0  0  0
   10.8021    2.4434    0.0000 C   0  0  0  0  0  0  0  0  0  0  0  0
   10.7928    0.9434    0.0000 O   0  0  0  0  0  0  0  0  0  0  0  0
   12.1058    3.1853    0.0000 N   0  0  0  0  0  0  0  0  0  0  0  0
   13.4001    2.4273    0.0000 C   0  0  0  0  0  0  0  0  0  0  0  0
   14.3572    1.2723    0.0000 C   0  0  0  0  0  0  0  0  0  0  0  0
   15.5495    0.3621    0.0000 O   0  0  0  0  0  0  0  0  0  0  0  0
   13.8354   -0.1340    0.0000 C   0  0  0  0  0  0  0  0  0  0  0  0
   14.7038    3.1692    0.0000 C   0  0  0  0  0  0  0  0  0  0  0  0
   15.0758    4.6224    0.0000 O   0  0  0  0  0  0  0  0  0  0  0  0
   15.9982    2.4112    0.0000 N   0  0  0  0  0  0  0  0  0  0  0  0
   17.3018    3.1531    0.0000 C   0  0  0  0  0  0  0  0  0  0  0  0
   18.2731    4.2962    0.0000 C   0  0  0  0  0  0  0  0  0  0  0  0
   19.7701    4.3917    0.0000 C   0  0  0  0  0  0  0  0  0  0  0  0
   18.5962    2.3951    0.0000 C   0  0  0  0  0  0  0  0  0  0  0  0
   18.5869    0.8951    0.0000 O   0  0  0  0  0  0  0  0  0  0  0  0
   19.8998    3.1370    0.0000 N   0  0  0  0  0  0  0  0  0  0  0  0
   20.0659    4.6278    0.0000 C   0  0  0  0  0  0  0  0  0  0  0  0
   21.5350    4.9306    0.0000 C   0  0  0  0  0  0  0  0  0  0  0  0
   22.2769    3.6269    0.0000 C   0  0  0  0  0  0  0  0  0  0  0  0
   21.2664    2.5185    0.0000 C   0  0  0  0  0  0  0  0  0  0  0  0
   22.4744    1.6293    0.0000 C   0  0  0  0  0  0  0  0  0  0  0  0
   23.9116    2.0589    0.0000 O   0  0  0  0  0  0  0  0  0  0  0  0
   22.3084    0.1385    0.0000 N   0  0  0  0  0  0  0  0  0  0  0  0
   23.5164   -0.7507    0.0000 C   0  0  0  0  0  0  0  0  0  0  0  0
   24.9557   -1.1731    0.0000 C   0  0  0  0  0  0  0  0  0  0  0  0
   25.3096   -2.6307    0.0000 C   0  0  0  0  0  0  0  0  0  0  0  0
   24.2241   -3.6660    0.0000 C   0  0  0  0  0  0  0  0  0  0  0  0
   24.5780   -5.1237    0.0000 C   0  0  0  0  0  0  0  0  0  0  0  0
   26.0173   -5.5461    0.0000 C   0  0  0  0  0  0  0  0  0  0  0  0
   26.3711   -7.0037    0.0000 O   0  0  0  0  0  0  0  0  0  0  0  0
   27.1027   -4.5108    0.0000 C   0  0  0  0  0  0  0  0  0  0  0  0
   26.7489   -3.0531    0.0000 C   0  0  0  0  0  0  0  0  0  0  0  0
   23.3504   -2.2415    0.0000 C   0  0  0  0  0  0  0  0  0  0  0  0
   21.9132   -2.6711    0.0000 O   0  0  0  0  0  0  0  0  0  0  0  0
   24.5584   -3.1306    0.0000 N   0  0  0  0  0  0  0  0  0  0  0  0
   24.3924   -4.6214    0.0000 C   0  0  0  0  0  0  0  0  0  0  0  0
   23.7265   -5.9655    0.0000 C   0  0  0  0  0  0  0  0  0  0  0  0
   22.2295   -6.0609    0.0000 C   0  0  0  0  0  0  0  0  0  0  0  0
   21.5636   -7.4050    0.0000 N   0  0  0  0  0  0  0  0  0  0  0  0
   21.3984   -4.8121    0.0000 O   0  0  0  0  0  0  0  0  0  0  0  0
   25.6004   -5.5106    0.0000 C   0  0  0  0  0  0  0  0  0  0  0  0
   27.0792   -5.2594    0.0000 O   0  0  0  0  0  0  0  0  0  0  0  0
   25.4344   -7.0014    0.0000 N   0  0  0  0  0  0  0  0  0  0  0  0
   26.6424   -7.8906    0.0000 C   0  0  0  0  0  0  0  0  0  0  0  0
   28.0817   -8.3130    0.0000 C   0  0  0  0  0  0  0  0  0  0  0  0
   28.4356   -9.7706    0.0000 C   0  0  0  0  0  0  0  0  0  0  0  0
   29.8749  -10.1930    0.0000 C   0  0  0  0  0  0  0  0  0  0  0  0
   28.2695  -11.2614    0.0000 C   0  0  0  0  0  0  0  0  0  0  0  0
   26.4764   -9.3814    0.0000 C   0  0  0  0  0  0  0  0  0  0  0  0
   27.5670  -10.4112    0.0000 O   0  0  0  0  0  0  0  0  0  0  0  0
   25.1023   -9.9830    0.0000 O   0  0  0  0  0  0  0  0  0  0  0  0
  -26.4777   -6.1316    0.0000 H   0  0  0  0  0  0  0  0  0  0  0  0
  -28.5654   -2.1536    0.0000 H   0  0  0  0  0  0  0  0  0  0  0  0
  -31.5556   -1.9109    0.0000 H   0  0  0  0  0  0  0  0  0  0  0  0
  -28.6769   -7.1370    0.0000 H   0  0  0  0  0  0  0  0  0  0  0  0
  -34.2142  -11.6815    0.0000 H   0  0  0  0  0  0  0  0  0  0  0  0
  -37.3673   -7.5513    0.0000 H   0  0  0  0  0  0  0  0  0  0  0  0
  -34.9827   -5.7309    0.0000 H   0  0  0  0  0  0  0  0  0  0  0  0
  -38.3674   -9.9492    0.0000 H   0  0  0  0  0  0  0  0  0  0  0  0
  -29.8294   -5.0653    0.0000 H   0  0  0  0  0  0  0  0  0  0  0  0
  -26.9585   -6.3723    0.0000 H   0  0  0  0  0  0  0  0  0  0  0  0
  -29.0609  -11.0159    0.0000 H   0  0  0  0  0  0  0  0  0  0  0  0
  -26.4842  -10.6831    0.0000 H   0  0  0  0  0  0  0  0  0  0  0  0
  -24.2904   -5.1073    0.0000 H   0  0  0  0  0  0  0  0  0  0  0  0
  -23.7010   -1.0664    0.0000 H   0  0  0  0  0  0  0  0  0  0  0  0
  -25.4436   -1.8923    0.0000 H   0  0  0  0  0  0  0  0  0  0  0  0
  -21.2217   -3.2645    0.0000 H   0  0  0  0  0  0  0  0  0  0  0  0
  -22.9642   -4.0904    0.0000 H   0  0  0  0  0  0  0  0  0  0  0  0
  -19.5949   -2.8818    0.0000 H   0  0  0  0  0  0  0  0  0  0  0  0
  -20.7481    0.3332    0.0000 H   0  0  0  0  0  0  0  0  0  0  0  0
  -17.9151    2.1890    0.0000 H   0  0  0  0  0  0  0  0  0  0  0  0
  -19.1457    2.6525    0.0000 H   0  0  0  0  0  0  0  0  0  0  0  0
  -20.5007    1.2804    0.0000 H   0  0  0  0  0  0  0  0  0  0  0  0
  -17.6794    2.1760    0.0000 H   0  0  0  0  0  0  0  0  0  0  0  0
  -16.0576   -1.0029    0.0000 H   0  0  0  0  0  0  0  0  0  0  0  0
  -14.9499   -1.9705    0.0000 H   0  0  0  0  0  0  0  0  0  0  0  0
  -14.5166   -2.4206    0.0000 H   0  0  0  0  0  0  0  0  0  0  0  0
  -13.4742   -2.8847    0.0000 H   0  0  0  0  0  0  0  0  0  0  0  0
  -12.8984   -3.0821    0.0000 H   0  0  0  0  0  0  0  0  0  0  0  0
  -11.4382   -3.2576    0.0000 H   0  0  0  0  0  0  0  0  0  0  0  0
  -10.3357   -3.4080    0.0000 H   0  0  0  0  0  0  0  0  0  0  0  0
  -15.8555   -2.0821    0.0000 H   0  0  0  0  0  0  0  0  0  0  0  0
  -17.2588   -1.7102    0.0000 H   0  0  0  0  0  0  0  0  0  0  0  0
  -17.6086    0.0587    0.0000 H   0  0  0  0  0  0  0  0  0  0  0  0
  -17.6033    3.7690    0.0000 H   0  0  0  0  0  0  0  0  0  0  0  0
  -17.2113    4.8104    0.0000 H   0  0  0  0  0  0  0  0  0  0  0  0
  -16.9309    7.7622    0.0000 H   0  0  0  0  0  0  0  0  0  0  0  0
  -15.3867    7.2284    0.0000 H   0  0  0  0  0  0  0  0  0  0  0  0
  -18.9036    7.4480    0.0000 H   0  0  0  0  0  0  0  0  0  0  0  0
  -14.6177    8.5874    0.0000 H   0  0  0  0  0  0  0  0  0  0  0  0
  -13.5591    8.9302    0.0000 H   0  0  0  0  0  0  0  0  0  0  0  0
  -11.0765   10.5514    0.0000 H   0  0  0  0  0  0  0  0  0  0  0  0
  -10.5310    9.0113    0.0000 H   0  0  0  0  0  0  0  0  0  0  0  0
  -12.5520   11.8978    0.0000 H   0  0  0  0  0  0  0  0  0  0  0  0
   -9.1656    9.3061    0.0000 H   0  0  0  0  0  0  0  0  0  0  0  0
   -8.0610    8.6435    0.0000 H   0  0  0  0  0  0  0  0  0  0  0  0
   -5.2456    7.7133    0.0000 H   0  0  0  0  0  0  0  0  0  0  0  0
   -6.1096    6.3266    0.0000 H   0  0  0  0  0  0  0  0  0  0  0  0
   -3.9460    8.7639    0.0000 H   0  0  0  0  0  0  0  0  0  0  0  0
   -3.4805   11.7276    0.0000 H   0  0  0  0  0  0  0  0  0  0  0  0
   -5.8143   13.6125    0.0000 H   0  0  0  0  0  0  0  0  0  0  0  0
   -8.6137   12.5338    0.0000 H   0  0  0  0  0  0  0  0  0  0  0  0
   -9.1345    9.7448    0.0000 H   0  0  0  0  0  0  0  0  0  0  0  0
   -4.9558    5.2744    0.0000 H   0  0  0  0  0  0  0  0  0  0  0  0
   -5.2256    0.7006    0.0000 H   0  0  0  0  0  0  0  0  0  0  0  0
   -4.7431    1.9166    0.0000 H   0  0  0  0  0  0  0  0  0  0  0  0
   -6.0273   -0.8392    0.0000 H   0  0  0  0  0  0  0  0  0  0  0  0
   -5.3683    0.0922    0.0000 H   0  0  0  0  0  0  0  0  0  0  0  0
   -7.5871   -2.1998    0.0000 H   0  0  0  0  0  0  0  0  0  0  0  0
   -6.4215   -1.3030    0.0000 H   0  0  0  0  0  0  0  0  0  0  0  0
   -8.4581   -2.8923    0.0000 H   0  0  0  0  0  0  0  0  0  0  0  0
   -3.3829    3.8892    0.0000 H   0  0  0  0  0  0  0  0  0  0  0  0
   -4.1613    5.4949    0.0000 H   0  0  0  0  0  0  0  0  0  0  0  0
   -5.6376    5.4470    0.0000 H   0  0  0  0  0  0  0  0  0  0  0  0
   -3.2903    4.7696    0.0000 H   0  0  0  0  0  0  0  0  0  0  0  0
   -3.1593    1.3808    0.0000 H   0  0  0  0  0  0  0  0  0  0  0  0
   -0.0387    0.4587    0.0000 H   0  0  0  0  0  0  0  0  0  0  0  0
   -0.0120    2.2430    0.0000 H   0  0  0  0  0  0  0  0  0  0  0  0
   -3.7533   -1.6951    0.0000 H   0  0  0  0  0  0  0  0  0  0  0  0
    0.5836    1.0179    0.0000 H   0  0  0  0  0  0  0  0  0  0  0  0
    0.7566    4.4048    0.0000 H   0  0  0  0  0  0  0  0  0  0  0  0
    3.2067    5.7991    0.0000 H   0  0  0  0  0  0  0  0  0  0  0  0
    1.3906    5.1508    0.0000 H   0  0  0  0  0  0  0  0  0  0  0  0
    3.6935    1.5674    0.0000 H   0  0  0  0  0  0  0  0  0  0  0  0
    6.9715    1.1922    0.0000 H   0  0  0  0  0  0  0  0  0  0  0  0
    8.5872    3.3143    0.0000 H   0  0  0  0  0  0  0  0  0  0  0  0
    7.5786    6.1397    0.0000 H   0  0  0  0  0  0  0  0  0  0  0  0
    4.6275    6.6789    0.0000 H   0  0  0  0  0  0  0  0  0  0  0  0
    4.6837    4.6868    0.0000 H   0  0  0  0  0  0  0  0  0  0  0  0
    4.6348    1.3325    0.0000 H   0  0  0  0  0  0  0  0  0  0  0  0
    7.7554    0.4104    0.0000 H   0  0  0  0  0  0  0  0  0  0  0  0
    7.7821    2.1947    0.0000 H   0  0  0  0  0  0  0  0  0  0  0  0
    3.3545    0.5521    0.0000 H   0  0  0  0  0  0  0  0  0  0  0  0
    2.5620   -1.9947    0.0000 H   0  0  0  0  0  0  0  0  0  0  0  0
    4.4761   -4.3047    0.0000 H   0  0  0  0  0  0  0  0  0  0  0  0
    7.4337   -3.8021    0.0000 H   0  0  0  0  0  0  0  0  0  0  0  0
    8.4772   -0.9895    0.0000 H   0  0  0  0  0  0  0  0  0  0  0  0
    8.3777    0.9696    0.0000 H   0  0  0  0  0  0  0  0  0  0  0  0
    8.5507    4.3565    0.0000 H   0  0  0  0  0  0  0  0  0  0  0  0
   11.0008    5.7508    0.0000 H   0  0  0  0  0  0  0  0  0  0  0  0
    9.1847    5.1025    0.0000 H   0  0  0  0  0  0  0  0  0  0  0  0
   12.8405    6.5968    0.0000 H   0  0  0  0  0  0  0  0  0  0  0  0
   15.7123    5.0470    0.0000 H   0  0  0  0  0  0  0  0  0  0  0  0
   15.2503    1.9711    0.0000 H   0  0  0  0  0  0  0  0  0  0  0  0
   12.4777    4.6385    0.0000 H   0  0  0  0  0  0  0  0  0  0  0  0
   12.2968    1.4112    0.0000 H   0  0  0  0  0  0  0  0  0  0  0  0
   15.6736    1.9913    0.0000 H   0  0  0  0  0  0  0  0  0  0  0  0
   15.8252   -0.9757    0.0000 H   0  0  0  0  0  0  0  0  0  0  0  0
   14.6445   -1.3971    0.0000 H   0  0  0  0  0  0  0  0  0  0  0  0
   12.8641   -1.2771    0.0000 H   0  0  0  0  0  0  0  0  0  0  0  0
   12.4583    0.4606    0.0000 H   0  0  0  0  0  0  0  0  0  0  0  0
   16.1718    0.9213    0.0000 H   0  0  0  0  0  0  0  0  0  0  0  0
   16.3448    4.3082    0.0000 H   0  0  0  0  0  0  0  0  0  0  0  0
   18.7949    5.7026    0.0000 H   0  0  0  0  0  0  0  0  0  0  0  0
   16.9787    5.0543    0.0000 H   0  0  0  0  0  0  0  0  0  0  0  0
   20.7200    5.1697    0.0000 H   0  0  0  0  0  0  0  0  0  0  0  0
   21.2770    3.6100    0.0000 H   0  0  0  0  0  0  0  0  0  0  0  0
   20.1223    2.5727    0.0000 H   0  0  0  0  0  0  0  0  0  0  0  0
   18.6127    4.9998    0.0000 H   0  0  0  0  0  0  0  0  0  0  0  0
   19.9183    6.1206    0.0000 H   0  0  0  0  0  0  0  0  0  0  0  0
   21.0803    6.3600    0.0000 H   0  0  0  0  0  0  0  0  0  0  0  0
   22.9091    5.5322    0.0000 H   0  0  0  0  0  0  0  0  0  0  0  0
   23.4959    4.5011    0.0000 H   0  0  0  0  0  0  0  0  0  0  0  0
   23.4029    2.6359    0.0000 H   0  0  0  0  0  0  0  0  0  0  0  0
   20.5083    1.2241    0.0000 H   0  0  0  0  0  0  0  0  0  0  0  0
   20.9343   -0.4631    0.0000 H   0  0  0  0  0  0  0  0  0  0  0  0
   24.1823    0.5934    0.0000 H   0  0  0  0  0  0  0  0  0  0  0  0
   26.4527   -1.0777    0.0000 H   0  0  0  0  0  0  0  0  0  0  0  0
   25.1217    0.3177    0.0000 H   0  0  0  0  0  0  0  0  0  0  0  0
   22.7441   -3.4222    0.0000 H   0  0  0  0  0  0  0  0  0  0  0  0
   23.7753   -6.3908    0.0000 H   0  0  0  0  0  0  0  0  0  0  0  0
   27.8512   -7.2475    0.0000 H   0  0  0  0  0  0  0  0  0  0  0  0
   28.5420   -4.9332    0.0000 H   0  0  0  0  0  0  0  0  0  0  0  0
   27.8343   -2.0178    0.0000 H   0  0  0  0  0  0  0  0  0  0  0  0
   26.0372   -2.8794    0.0000 H   0  0  0  0  0  0  0  0  0  0  0  0
   22.9531   -4.1990    0.0000 H   0  0  0  0  0  0  0  0  0  0  0  0
   23.3800   -7.4249    0.0000 H   0  0  0  0  0  0  0  0  0  0  0  0
   25.0208   -6.7236    0.0000 H   0  0  0  0  0  0  0  0  0  0  0  0
   20.0666   -7.5003    0.0000 H   0  0  0  0  0  0  0  0  0  0  0  0
   22.3947   -8.6537    0.0000 H   0  0  0  0  0  0  0  0  0  0  0  0
   24.1439   -7.7660    0.0000 H   0  0  0  0  0  0  0  0  0  0  0  0
   27.3083   -6.5465    0.0000 H   0  0  0  0  0  0  0  0  0  0  0  0
   29.5559   -8.0358    0.0000 H   0  0  0  0  0  0  0  0  0  0  0  0
   28.4282   -6.8535    0.0000 H   0  0  0  0  0  0  0  0  0  0  0  0
   27.0723  -10.3962    0.0000 H   0  0  0  0  0  0  0  0  0  0  0  0
   30.4038  -11.5967    0.0000 H   0  0  0  0  0  0  0  0  0  0  0  0
   31.3718  -10.0976    0.0000 H   0  0  0  0  0  0  0  0  0  0  0  0
   30.2214   -8.7336    0.0000 H   0  0  0  0  0  0  0  0  0  0  0  0
   29.3602  -12.2912    0.0000 H   0  0  0  0  0  0  0  0  0  0  0  0
   27.6036  -12.6055    0.0000 H   0  0  0  0  0  0  0  0  0  0  0  0
   26.8302  -10.8390    0.0000 H   0  0  0  0  0  0  0  0  0  0  0  0
   24.9363  -11.4737    0.0000 H   0  0  0  0  0  0  0  0  0  0  0  0
  1  2  1  0
  2  3  1  0
  3  4  2  0
  4  5  1  0
  5  6  2  0
  6  7  1  0
  7  8  2  0
  7  9  1  0
  9 10  1  0
 10 11  1  0
 11 12  2  0
  9 13  1  0
 13 14  1  0
 14 15  2  0
 15 16  1  0
 16 17  2  0
 17 18  1  0
 16 19  1  0
 14 20  1  0
 20 21  1  0
 21 22  2  0
 22 23  1  0
 23 24  2  0
 24 25  1  0
 25 26  2  0
 25 27  1  0
  1 28  2  0
  1 29  1  0
 29 30  1  0
 30 31  1  0
 31 32  1  0
 32 33  2  0
 32 34  1  0
 34 35  1  0
 35 36  1  0
 35 37  1  0
 37 38  2  0
 37 39  1  0
 40 39  1  6
 40 41  1  0
 41 42  1  0
 42 43  1  0
 43 44  1  0
 40 45  1  0
 40 46  1  0
 46 47  2  0
 46 48  1  0
 48 49  1  0
 49 50  1  0
 50 51  1  0
 49 52  1  0
 52 53  2  0
 52 54  1  0
 54 55  1  0
 55 56  1  0
 56 57  1  0
 55 58  1  0
 58 59  2  0
 58 60  1  0
 60 61  1  0
 61 62  1  0
 62 63  1  0
 63 64  2  0
 64 65  1  0
 65 66  2  0
 66 67  1  0
 67 68  2  0
 61 69  1  0
 69 70  2  0
 69 71  1  0
 71 72  1  0
 72 73  1  0
 73 74  1  0
 74 75  1  0
 75 76  1  0
 72 77  1  0
 72 78  1  6
 78 79  2  0
 78 80  1  0
 80 81  1  0
 81 82  1  0
 82 83  1  0
 83 84  2  0
 83 85  1  0
 81 86  1  0
 86 87  2  0
 86 88  1  0
 88 89  1  0
 89 90  1  0
 90 91  1  0
 91 92  2  0
 92 93  1  0
 93 94  2  0
 94 95  1  0
 95 96  2  0
 89 97  1  0
 97 98  2  0
 97 99  1  0
 99100  1  0
100101  1  0
101102  1  0
102103  2  0
103104  1  0
104105  2  0
105106  1  0
106107  2  0
100108  1  0
108109  2  0
108110  1  0
110111  1  0
111112  1  0
112113  1  0
113114  2  0
114115  1  0
115116  1  0
116117  2  0
111118  1  0
118119  2  0
118120  1  0
120121  1  0
121122  1  0
122123  1  0
122124  1  0
121125  1  0
125126  2  0
125127  1  0
127128  1  0
128129  1  0
129130  1  0
128131  1  0
131132  2  0
131133  1  0
133134  1  0
134135  1  0
135136  1  0
136137  1  0
137138  1  0
138139  2  0
138140  1  0
140141  1  0
141142  1  0
142143  1  0
143144  2  0
144145  1  0
145146  2  0
146147  1  0
146148  1  0
148149  2  0
141150  1  0
150151  2  0
150152  1  0
152153  1  0
153154  1  0
154155  1  0
155156  1  0
155157  2  0
153158  1  0
158159  2  0
158160  1  0
160161  1  0
161162  1  0
162163  1  0
163164  1  0
163165  1  0
161166  1  0
166167  2  0
166168  1  0
  8  3  1  0
 68 63  1  0
 96 91  1  0
107102  1  0
117113  1  0
137133  1  0
149143  1  0
 11  6  1  0
 44 76  2  0
 18 13  2  0
 22  9  1  0
 26 21  1  0
  2169  1  0
  4170  1  0
  5171  1  0
  8172  1  0
 15173  1  0
 17174  1  0
 18175  1  0
 19176  1  0
 23177  1  0
 24178  1  0
 26179  1  0
 27180  1  0
 29181  1  0
 30182  1  0
 30183  1  0
 31184  1  0
 31185  1  0
 34186  1  0
 35187  1  1
 36188  1  0
 36189  1  0
 36190  1  0
 39191  1  0
 41192  1  0
 41193  1  0
 42194  1  0
 42195  1  0
 43196  1  0
 43197  1  0
 44198  1  0
 45199  1  0
 45200  1  0
 45201  1  0
 48202  1  0
 49203  1  1
 50204  1  0
 50205  1  0
 51206  1  0
 54207  1  0
 55208  1  1
 56209  1  0
 56210  1  0
 57211  1  0
 60212  1  0
 61213  1  1
 62214  1  0
 62215  1  0
 64216  1  0
 65217  1  0
 66218  1  0
 67219  1  0
 68220  1  0
 71221  1  0
 73222  1  0
 73223  1  0
 74224  1  0
 74225  1  0
 75226  1  0
 75227  1  0
 76228  1  0
 77229  1  0
 77230  1  0
 77231  1  0
 80232  1  0
 81233  1  6
 82234  1  0
 82235  1  0
 85236  1  0
 88237  1  0
 89238  1  1
 90239  1  0
 90240  1  0
 92241  1  0
 93242  1  0
 94243  1  0
 95244  1  0
 96245  1  0
 99246  1  0
100247  1  6
101248  1  0
101249  1  0
103250  1  0
104251  1  0
105252  1  0
106253  1  0
107254  1  0
110255  1  0
111256  1  1
112257  1  0
112258  1  0
114259  1  0
115260  1  0
116261  1  0
120262  1  0
121263  1  6
122264  1  1
123265  1  0
124266  1  0
124267  1  0
124268  1  0
127269  1  0
128270  1  1
129271  1  0
129272  1  0
130273  1  0
130274  1  0
130275  1  0
134276  1  0
134277  1  0
135278  1  0
135279  1  0
136280  1  0
136281  1  0
137282  1  0
140283  1  0
141284  1  1
142285  1  0
142286  1  0
144287  1  0
145288  1  0
147289  1  0
148290  1  0
149291  1  0
152292  1  0
153293  1  1
154294  1  0
154295  1  0
156296  1  0
156297  1  0
160298  1  0
161299  1  1
162300  1  0
162301  1  0
163302  1  0
164303  1  0
164304  1  0
164305  1  0
165306  1  0
165307  1  0
165308  1  0
168309  1  0
M  END
