
     RDKit          2D

242243  0  0  0  0  0  0  0  0999 V2000
   14.5152  -11.1958    0.0000 N   0  0  0  0  0  0  0  0  0  0  0  0
   13.2182  -10.4424    0.0000 C   0  0  0  0  0  0  0  0  0  0  0  0
   12.7014  -11.8506    0.0000 C   0  0  0  0  0  0  0  0  0  0  0  0
   12.2570   -9.2908    0.0000 C   0  0  0  0  0  0  0  0  0  0  0  0
   10.9650   -9.6821    0.0000 O   0  0  0  0  0  0  0  0  0  0  0  0
   12.7738   -7.8826    0.0000 N   0  0  0  0  0  0  0  0  0  0  0  0
   11.8126   -6.7310    0.0000 C   0  0  0  0  0  0  0  0  0  0  0  0
   10.8454   -7.8775    0.0000 C   0  0  0  0  0  0  0  0  0  0  0  0
    9.3689   -7.6131    0.0000 C   0  0  0  0  0  0  0  0  0  0  0  0
    8.7149   -6.2632    0.0000 C   0  0  0  0  0  0  0  0  0  0  0  0
    7.2290   -6.4680    0.0000 N   0  0  0  0  0  0  0  0  0  0  0  0
    6.9646   -7.9446    0.0000 C   0  0  0  0  0  0  0  0  0  0  0  0
    8.2871   -8.6523    0.0000 N   0  0  0  0  0  0  0  0  0  0  0  0
   11.3033   -5.3201    0.0000 C   0  0  0  0  0  0  0  0  0  0  0  0
   10.1424   -4.9618    0.0000 O   0  0  0  0  0  0  0  0  0  0  0  0
   12.2705   -4.1736    0.0000 N   0  0  0  0  0  0  0  0  0  0  0  0
   11.7612   -2.7627    0.0000 C   0  0  0  0  0  0  0  0  0  0  0  0
   13.2391   -2.5061    0.0000 C   0  0  0  0  0  0  0  0  0  0  0  0
   14.2003   -3.6577    0.0000 C   0  0  0  0  0  0  0  0  0  0  0  0
   15.6782   -3.4012    0.0000 C   0  0  0  0  0  0  0  0  0  0  0  0
   14.7096   -5.0686    0.0000 C   0  0  0  0  0  0  0  0  0  0  0  0
   10.8001   -1.6111    0.0000 C   0  0  0  0  0  0  0  0  0  0  0  0
   11.4846   -0.2764    0.0000 O   0  0  0  0  0  0  0  0  0  0  0  0
    9.3222   -1.8677    0.0000 N   0  0  0  0  0  0  0  0  0  0  0  0
    8.3611   -0.7160    0.0000 C   0  0  0  0  0  0  0  0  0  0  0  0
    7.7560   -2.0886    0.0000 C   0  0  0  0  0  0  0  0  0  0  0  0
    6.9022   -3.3219    0.0000 C   0  0  0  0  0  0  0  0  0  0  0  0
    5.8304   -4.3713    0.0000 C   0  0  0  0  0  0  0  0  0  0  0  0
    4.5793   -5.1988    0.0000 C   0  0  0  0  0  0  0  0  0  0  0  0
    3.1943   -5.7747    0.0000 C   0  0  0  0  0  0  0  0  0  0  0  0
    1.7253   -6.0780    0.0000 C   0  0  0  0  0  0  0  0  0  0  0  0
    0.2254   -6.0979    0.0000 C   0  0  0  0  0  0  0  0  0  0  0  0
    9.8197   -0.3663    0.0000 C   0  0  0  0  0  0  0  0  0  0  0  0
    8.6954    0.7462    0.0000 C   0  0  0  0  0  0  0  0  0  0  0  0
   10.1953    0.7352    0.0000 O   0  0  0  0  0  0  0  0  0  0  0  0
    8.7469    2.2453    0.0000 N   0  0  0  0  0  0  0  0  0  0  0  0
    8.5139    3.7271    0.0000 C   0  0  0  0  0  0  0  0  0  0  0  0
    9.5518    4.8100    0.0000 C   0  0  0  0  0  0  0  0  0  0  0  0
   11.0086    4.4525    0.0000 C   0  0  0  0  0  0  0  0  0  0  0  0
   12.0466    5.5354    0.0000 C   0  0  0  0  0  0  0  0  0  0  0  0
   12.2553    3.6183    0.0000 C   0  0  0  0  0  0  0  0  0  0  0  0
    8.0045    5.1380    0.0000 C   0  0  0  0  0  0  0  0  0  0  0  0
    9.2724    5.9396    0.0000 O   0  0  0  0  0  0  0  0  0  0  0  0
    7.2374    6.4270    0.0000 N   0  0  0  0  0  0  0  0  0  0  0  0
    6.2402    7.5475    0.0000 C   0  0  0  0  0  0  0  0  0  0  0  0
    6.5280    9.0197    0.0000 C   0  0  0  0  0  0  0  0  0  0  0  0
    7.9468    9.5065    0.0000 S   0  0  0  0  0  0  0  0  0  0  0  0
    5.0490    8.4591    0.0000 C   0  0  0  0  0  0  0  0  0  0  0  0
    5.6822    9.8189    0.0000 O   0  0  0  0  0  0  0  0  0  0  0  0
    3.7068    9.1288    0.0000 N   0  0  0  0  0  0  0  0  0  0  0  0
    2.2621    9.5323    0.0000 C   0  0  0  0  0  0  0  0  0  0  0  0
    1.7083   10.9263    0.0000 C   0  0  0  0  0  0  0  0  0  0  0  0
    2.6386   12.1029    0.0000 C   0  0  0  0  0  0  0  0  0  0  0  0
    2.0848   13.4969    0.0000 C   0  0  0  0  0  0  0  0  0  0  0  0
    3.9153   12.8904    0.0000 C   0  0  0  0  0  0  0  0  0  0  0  0
    0.7671    9.6551    0.0000 C   0  0  0  0  0  0  0  0  0  0  0  0
    0.5646   11.1414    0.0000 O   0  0  0  0  0  0  0  0  0  0  0  0
   -0.7241    9.4928    0.0000 N   0  0  0  0  0  0  0  0  0  0  0  0
   -2.1576    9.0512    0.0000 C   0  0  0  0  0  0  0  0  0  0  0  0
   -3.3772    9.9245    0.0000 C   0  0  0  0  0  0  0  0  0  0  0  0
   -3.2306   11.4173    0.0000 C   0  0  0  0  0  0  0  0  0  0  0  0
   -4.4502   12.2906    0.0000 C   0  0  0  0  0  0  0  0  0  0  0  0
   -4.3037   13.7835    0.0000 O   0  0  0  0  0  0  0  0  0  0  0  0
   -5.8163   11.6711    0.0000 O   0  0  0  0  0  0  0  0  0  0  0  0
   -3.4817    8.3463    0.0000 C   0  0  0  0  0  0  0  0  0  0  0  0
   -4.4556    9.4871    0.0000 O   0  0  0  0  0  0  0  0  0  0  0  0
   -4.6484    7.4035    0.0000 N   0  0  0  0  0  0  0  0  0  0  0  0
   -5.6156    6.2570    0.0000 C   0  0  0  0  0  0  0  0  0  0  0  0
   -7.1137    6.3323    0.0000 C   0  0  0  0  0  0  0  0  0  0  0  0
   -7.7975    7.6674    0.0000 C   0  0  0  0  0  0  0  0  0  0  0  0
   -9.2956    7.7427    0.0000 C   0  0  0  0  0  0  0  0  0  0  0  0
   -9.9794    9.0778    0.0000 C   0  0  0  0  0  0  0  0  0  0  0  0
  -11.4775    9.1531    0.0000 N   0  0  0  0  0  0  0  0  0  0  0  0
   -6.3483    4.9482    0.0000 C   0  0  0  0  0  0  0  0  0  0  0  0
   -7.7844    5.3814    0.0000 O   0  0  0  0  0  0  0  0  0  0  0  0
   -6.8202    3.5243    0.0000 N   0  0  0  0  0  0  0  0  0  0  0  0
   -7.0140    2.0369    0.0000 C   0  0  0  0  0  0  0  0  0  0  0  0
   -8.3150    1.2903    0.0000 C   0  0  0  0  0  0  0  0  0  0  0  0
   -9.6120    2.0437    0.0000 C   0  0  0  0  0  0  0  0  0  0  0  0
  -10.9131    1.2972    0.0000 C   0  0  0  0  0  0  0  0  0  0  0  0
  -10.5732    3.1954    0.0000 C   0  0  0  0  0  0  0  0  0  0  0  0
   -6.9228    0.5397    0.0000 C   0  0  0  0  0  0  0  0  0  0  0  0
   -8.3651    0.1277    0.0000 O   0  0  0  0  0  0  0  0  0  0  0  0
   -6.5499   -0.9133    0.0000 N   0  0  0  0  0  0  0  0  0  0  0  0
   -5.9088   -2.2693    0.0000 C   0  0  0  0  0  0  0  0  0  0  0  0
   -5.0226   -3.4796    0.0000 C   0  0  0  0  0  0  0  0  0  0  0  0
   -3.9234   -4.5003    0.0000 C   0  0  0  0  0  0  0  0  0  0  0  0
   -2.6509   -5.2945    0.0000 C   0  0  0  0  0  0  0  0  0  0  0  0
   -1.2511   -5.8335    0.0000 C   0  0  0  0  0  0  0  0  0  0  0  0
   -7.4085   -2.2416    0.0000 C   0  0  0  0  0  0  0  0  0  0  0  0
   -6.5997   -3.6008    0.0000 C   0  0  0  0  0  0  0  0  0  0  0  0
   -6.1219   -5.0227    0.0000 O   0  0  0  0  0  0  0  0  0  0  0  0
   -8.0981   -3.6682    0.0000 N   0  0  0  0  0  0  0  0  0  0  0  0
   -8.7890   -4.9996    0.0000 C   0  0  0  0  0  0  0  0  0  0  0  0
  -10.2875   -5.0670    0.0000 C   0  0  0  0  0  0  0  0  0  0  0  0
  -11.0951   -3.8030    0.0000 O   0  0  0  0  0  0  0  0  0  0  0  0
  -10.9783   -6.3985    0.0000 N   0  0  0  0  0  0  0  0  0  0  0  0
  -12.4768   -6.4659    0.0000 C   0  0  0  0  0  0  0  0  0  0  0  0
  -13.9080   -6.0167    0.0000 C   0  0  0  0  0  0  0  0  0  0  0  0
  -14.2346   -4.5527    0.0000 C   0  0  0  0  0  0  0  0  0  0  0  0
  -15.6658   -4.1036    0.0000 C   0  0  0  0  0  0  0  0  0  0  0  0
  -14.0408   -3.0653    0.0000 C   0  0  0  0  0  0  0  0  0  0  0  0
  -13.1677   -7.7973    0.0000 C   0  0  0  0  0  0  0  0  0  0  0  0
  -12.3601   -9.0613    0.0000 O   0  0  0  0  0  0  0  0  0  0  0  0
  -14.6662   -7.8647    0.0000 N   0  0  0  0  0  0  0  0  0  0  0  0
  -15.3570   -9.1962    0.0000 C   0  0  0  0  0  0  0  0  0  0  0  0
  -15.5508  -10.6836    0.0000 C   0  0  0  0  0  0  0  0  0  0  0  0
  -16.9359  -11.2595    0.0000 C   0  0  0  0  0  0  0  0  0  0  0  0
  -16.8555   -9.2636    0.0000 C   0  0  0  0  0  0  0  0  0  0  0  0
  -17.7035  -10.5009    0.0000 O   0  0  0  0  0  0  0  0  0  0  0  0
  -17.6631   -7.9996    0.0000 O   0  0  0  0  0  0  0  0  0  0  0  0
   14.6941  -12.6851    0.0000 H   0  0  0  0  0  0  0  0  0  0  0  0
   15.8162  -10.4493    0.0000 H   0  0  0  0  0  0  0  0  0  0  0  0
   14.1854   -9.2959    0.0000 H   0  0  0  0  0  0  0  0  0  0  0  0
   13.5150  -13.1107    0.0000 H   0  0  0  0  0  0  0  0  0  0  0  0
   11.7342  -12.9971    0.0000 H   0  0  0  0  0  0  0  0  0  0  0  0
   11.4044  -11.0971    0.0000 H   0  0  0  0  0  0  0  0  0  0  0  0
   14.2517   -7.6260    0.0000 H   0  0  0  0  0  0  0  0  0  0  0  0
   13.0129   -5.8314    0.0000 H   0  0  0  0  0  0  0  0  0  0  0  0
   10.2293   -9.0787    0.0000 H   0  0  0  0  0  0  0  0  0  0  0  0
   11.6300   -8.6392    0.0000 H   0  0  0  0  0  0  0  0  0  0  0  0
    9.1533   -5.1301    0.0000 H   0  0  0  0  0  0  0  0  0  0  0  0
    5.9590   -5.6699    0.0000 H   0  0  0  0  0  0  0  0  0  0  0  0
    5.6147   -8.5986    0.0000 H   0  0  0  0  0  0  0  0  0  0  0  0
   13.0322   -4.4087    0.0000 H   0  0  0  0  0  0  0  0  0  0  0  0
   10.4602   -3.5093    0.0000 H   0  0  0  0  0  0  0  0  0  0  0  0
   14.4394   -1.6065    0.0000 H   0  0  0  0  0  0  0  0  0  0  0  0
   12.7298   -1.0952    0.0000 H   0  0  0  0  0  0  0  0  0  0  0  0
   13.6411   -4.3447    0.0000 H   0  0  0  0  0  0  0  0  0  0  0  0
   16.7725   -4.4270    0.0000 H   0  0  0  0  0  0  0  0  0  0  0  0
   16.9792   -2.6546    0.0000 H   0  0  0  0  0  0  0  0  0  0  0  0
   15.3446   -1.9387    0.0000 H   0  0  0  0  0  0  0  0  0  0  0  0
   16.1429   -5.5110    0.0000 H   0  0  0  0  0  0  0  0  0  0  0  0
   14.7056   -6.5686    0.0000 H   0  0  0  0  0  0  0  0  0  0  0  0
   13.2114   -5.1431    0.0000 H   0  0  0  0  0  0  0  0  0  0  0  0
    9.1616   -3.3590    0.0000 H   0  0  0  0  0  0  0  0  0  0  0  0
    9.2263   -2.3858    0.0000 H   0  0  0  0  0  0  0  0  0  0  0  0
    8.4819   -3.4013    0.0000 H   0  0  0  0  0  0  0  0  0  0  0  0
    8.2896   -3.8919    0.0000 H   0  0  0  0  0  0  0  0  0  0  0  0
    7.5369   -4.6810    0.0000 H   0  0  0  0  0  0  0  0  0  0  0  0
    7.1758   -5.0346    0.0000 H   0  0  0  0  0  0  0  0  0  0  0  0
    6.0163   -5.8597    0.0000 H   0  0  0  0  0  0  0  0  0  0  0  0
    5.6555   -6.2437    0.0000 H   0  0  0  0  0  0  0  0  0  0  0  0
    4.6634   -6.6965    0.0000 H   0  0  0  0  0  0  0  0  0  0  0  0
    4.1968   -6.8905    0.0000 H   0  0  0  0  0  0  0  0  0  0  0  0
    2.9934   -7.2612    0.0000 H   0  0  0  0  0  0  0  0  0  0  0  0
    2.4985   -7.3634    0.0000 H   0  0  0  0  0  0  0  0  0  0  0  0
    1.0770   -7.4307    0.0000 H   0  0  0  0  0  0  0  0  0  0  0  0
    0.1026   -7.5928    0.0000 H   0  0  0  0  0  0  0  0  0  0  0  0
   11.0846   -1.1725    0.0000 H   0  0  0  0  0  0  0  0  0  0  0  0
   11.0708    0.4613    0.0000 H   0  0  0  0  0  0  0  0  0  0  0  0
    9.5726    1.1132    0.0000 H   0  0  0  0  0  0  0  0  0  0  0  0
   10.2441    2.1533    0.0000 H   0  0  0  0  0  0  0  0  0  0  0  0
    9.8796    3.1068    0.0000 H   0  0  0  0  0  0  0  0  0  0  0  0
   10.1569    6.1825    0.0000 H   0  0  0  0  0  0  0  0  0  0  0  0
    8.5441    5.9210    0.0000 H   0  0  0  0  0  0  0  0  0  0  0  0
   10.7537    2.9743    0.0000 H   0  0  0  0  0  0  0  0  0  0  0  0
   13.5361    5.3581    0.0000 H   0  0  0  0  0  0  0  0  0  0  0  0
   12.6516    6.9079    0.0000 H   0  0  0  0  0  0  0  0  0  0  0  0
   10.9109    6.5153    0.0000 H   0  0  0  0  0  0  0  0  0  0  0  0
   13.6717    4.1119    0.0000 H   0  0  0  0  0  0  0  0  0  0  0  0
   13.1414    2.4081    0.0000 H   0  0  0  0  0  0  0  0  0  0  0  0
   11.2173    2.5354    0.0000 H   0  0  0  0  0  0  0  0  0  0  0  0
    8.4477    7.3132    0.0000 H   0  0  0  0  0  0  0  0  0  0  0  0
    7.6871    7.9434    0.0000 H   0  0  0  0  0  0  0  0  0  0  0  0
    6.4773   10.5188    0.0000 H   0  0  0  0  0  0  0  0  0  0  0  0
    5.0795    9.4095    0.0000 H   0  0  0  0  0  0  0  0  0  0  0  0
    8.2346   10.9787    0.0000 H   0  0  0  0  0  0  0  0  0  0  0  0
    4.4124   10.4524    0.0000 H   0  0  0  0  0  0  0  0  0  0  0  0
    3.3936   10.5169    0.0000 H   0  0  0  0  0  0  0  0  0  0  0  0
    0.7111   12.0468    0.0000 H   0  0  0  0  0  0  0  0  0  0  0  0
    0.2790   10.4712    0.0000 H   0  0  0  0  0  0  0  0  0  0  0  0
    3.8773   11.2570    0.0000 H   0  0  0  0  0  0  0  0  0  0  0  0
    2.8648   14.7782    0.0000 H   0  0  0  0  0  0  0  0  0  0  0  0
    1.0876   14.6175    0.0000 H   0  0  0  0  0  0  0  0  0  0  0  0
    0.7217   12.8710    0.0000 H   0  0  0  0  0  0  0  0  0  0  0  0
    4.0547   14.3839    0.0000 H   0  0  0  0  0  0  0  0  0  0  0  0
    5.3843   13.1937    0.0000 H   0  0  0  0  0  0  0  0  0  0  0  0
    4.4691   11.4964    0.0000 H   0  0  0  0  0  0  0  0  0  0  0  0
   -0.8461   10.9878    0.0000 H   0  0  0  0  0  0  0  0  0  0  0  0
   -1.7380   10.4913    0.0000 H   0  0  0  0  0  0  0  0  0  0  0  0
   -4.7619   10.5011    0.0000 H   0  0  0  0  0  0  0  0  0  0  0  0
   -4.3335    8.7689    0.0000 H   0  0  0  0  0  0  0  0  0  0  0  0
   -2.5824   12.7700    0.0000 H   0  0  0  0  0  0  0  0  0  0  0  0
   -1.7312   11.3754    0.0000 H   0  0  0  0  0  0  0  0  0  0  0  0
   -7.0359   12.5444    0.0000 H   0  0  0  0  0  0  0  0  0  0  0  0
   -5.5593    8.5953    0.0000 H   0  0  0  0  0  0  0  0  0  0  0  0
   -6.0412    7.6954    0.0000 H   0  0  0  0  0  0  0  0  0  0  0  0
   -8.5472    5.8908    0.0000 H   0  0  0  0  0  0  0  0  0  0  0  0
   -7.2934    4.8432    0.0000 H   0  0  0  0  0  0  0  0  0  0  0  0
   -7.8006    9.1674    0.0000 H   0  0  0  0  0  0  0  0  0  0  0  0
   -6.5134    8.4428    0.0000 H   0  0  0  0  0  0  0  0  0  0  0  0
  -10.7291    7.3011    0.0000 H   0  0  0  0  0  0  0  0  0  0  0  0
   -9.2925    6.2427    0.0000 H   0  0  0  0  0  0  0  0  0  0  0  0
  -10.1654   10.5662    0.0000 H   0  0  0  0  0  0  0  0  0  0  0  0
   -8.6104    9.6908    0.0000 H   0  0  0  0  0  0  0  0  0  0  0  0
  -12.1614   10.4882    0.0000 H   0  0  0  0  0  0  0  0  0  0  0  0
  -12.2918    7.8934    0.0000 H   0  0  0  0  0  0  0  0  0  0  0  0
   -8.2308    4.0344    0.0000 H   0  0  0  0  0  0  0  0  0  0  0  0
   -8.1496    3.0168    0.0000 H   0  0  0  0  0  0  0  0  0  0  0  0
   -9.2822    0.1438    0.0000 H   0  0  0  0  0  0  0  0  0  0  0  0
   -7.6611   -0.0596    0.0000 H   0  0  0  0  0  0  0  0  0  0  0  0
   -8.9510    3.3902    0.0000 H   0  0  0  0  0  0  0  0  0  0  0  0
  -12.2923    1.8869    0.0000 H   0  0  0  0  0  0  0  0  0  0  0  0
  -11.8803    0.1507    0.0000 H   0  0  0  0  0  0  0  0  0  0  0  0
  -10.0995    0.0370    0.0000 H   0  0  0  0  0  0  0  0  0  0  0  0
  -12.0713    3.1208    0.0000 H   0  0  0  0  0  0  0  0  0  0  0  0
  -11.0825    4.6062    0.0000 H   0  0  0  0  0  0  0  0  0  0  0  0
   -9.2722    3.9419    0.0000 H   0  0  0  0  0  0  0  0  0  0  0  0
   -8.0124   -1.2468    0.0000 H   0  0  0  0  0  0  0  0  0  0  0  0
   -5.4490   -4.9177    0.0000 H   0  0  0  0  0  0  0  0  0  0  0  0
   -6.3945   -4.0862    0.0000 H   0  0  0  0  0  0  0  0  0  0  0  0
   -4.2508   -5.9641    0.0000 H   0  0  0  0  0  0  0  0  0  0  0  0
   -5.1557   -5.3555    0.0000 H   0  0  0  0  0  0  0  0  0  0  0  0
   -2.5123   -6.7880    0.0000 H   0  0  0  0  0  0  0  0  0  0  0  0
   -3.8221   -6.2317    0.0000 H   0  0  0  0  0  0  0  0  0  0  0  0
   -1.6547   -7.2782    0.0000 H   0  0  0  0  0  0  0  0  0  0  0  0
   -8.4704   -3.3011    0.0000 H   0  0  0  0  0  0  0  0  0  0  0  0
   -8.8083   -1.7026    0.0000 H   0  0  0  0  0  0  0  0  0  0  0  0
   -7.4855   -0.7436    0.0000 H   0  0  0  0  0  0  0  0  0  0  0  0
   -9.0538   -2.5120    0.0000 H   0  0  0  0  0  0  0  0  0  0  0  0
   -8.9828   -6.4871    0.0000 H   0  0  0  0  0  0  0  0  0  0  0  0
   -7.3578   -5.4488    0.0000 H   0  0  0  0  0  0  0  0  0  0  0  0
  -10.1707   -7.6625    0.0000 H   0  0  0  0  0  0  0  0  0  0  0  0
  -12.1031   -5.0132    0.0000 H   0  0  0  0  0  0  0  0  0  0  0  0
  -15.4065   -6.0841    0.0000 H   0  0  0  0  0  0  0  0  0  0  0  0
  -14.4560   -7.4131    0.0000 H   0  0  0  0  0  0  0  0  0  0  0  0
  -12.7555   -4.3031    0.0000 H   0  0  0  0  0  0  0  0  0  0  0  0
  -16.1684   -2.6903    0.0000 H   0  0  0  0  0  0  0  0  0  0  0  0
  -17.1643   -4.1710    0.0000 H   0  0  0  0  0  0  0  0  0  0  0  0
  -16.0395   -5.5563    0.0000 H   0  0  0  0  0  0  0  0  0  0  0  0
  -15.1120   -2.0153    0.0000 H   0  0  0  0  0  0  0  0  0  0  0  0
  -13.3499   -1.7339    0.0000 H   0  0  0  0  0  0  0  0  0  0  0  0
  -12.6096   -3.5145    0.0000 H   0  0  0  0  0  0  0  0  0  0  0  0
  -15.6218   -6.7086    0.0000 H   0  0  0  0  0  0  0  0  0  0  0  0
  -13.9259   -9.6453    0.0000 H   0  0  0  0  0  0  0  0  0  0  0  0
  -15.2242  -12.1476    0.0000 H   0  0  0  0  0  0  0  0  0  0  0  0
  -14.0524  -10.6162    0.0000 H   0  0  0  0  0  0  0  0  0  0  0  0
  -17.1297  -12.7469    0.0000 H   0  0  0  0  0  0  0  0  0  0  0  0
  -18.4344  -11.3269    0.0000 H   0  0  0  0  0  0  0  0  0  0  0  0
  -17.7656  -10.0098    0.0000 H   0  0  0  0  0  0  0  0  0  0  0  0
  -19.1616   -8.0670    0.0000 H   0  0  0  0  0  0  0  0  0  0  0  0
  1  2  1  0
  2  3  1  0
  2  4  1  0
  4  5  2  0
  4  6  1  0
  6  7  1  0
  7  8  1  0
  8  9  1  0
  9 10  2  0
 10 11  1  0
 11 12  1  0
 12 13  2  0
  7 14  1  0
 14 15  2  0
 14 16  1  0
 16 17  1  0
 17 18  1  0
 18 19  1  0
 19 20  1  0
 19 21  1  0
 17 22  1  0
 22 23  2  0
 22 24  1  0
 25 24  1  6
 25 26  1  0
 26 27  1  0
 27 28  1  0
 28 29  1  0
 29 30  1  0
 30 31  1  0
 31 32  1  0
 25 33  1  0
 25 34  1  0
 34 35  2  0
 34 36  1  0
 36 37  1  0
 37 38  1  0
 38 39  1  0
 39 40  1  0
 39 41  1  0
 37 42  1  0
 42 43  2  0
 42 44  1  0
 44 45  1  0
 45 46  1  0
 46 47  1  0
 45 48  1  0
 48 49  2  0
 48 50  1  0
 50 51  1  0
 51 52  1  0
 52 53  1  0
 53 54  1  0
 53 55  1  0
 51 56  1  0
 56 57  2  0
 56 58  1  0
 58 59  1  0
 59 60  1  0
 60 61  1  0
 61 62  1  0
 62 63  2  0
 62 64  1  0
 59 65  1  0
 65 66  2  0
 65 67  1  0
 67 68  1  0
 68 69  1  0
 69 70  1  0
 70 71  1  0
 71 72  1  0
 72 73  1  0
 68 74  1  0
 74 75  2  0
 74 76  1  0
 76 77  1  0
 77 78  1  0
 78 79  1  0
 79 80  1  0
 79 81  1  0
 77 82  1  0
 82 83  2  0
 82 84  1  0
 84 85  1  0
 85 86  1  0
 86 87  1  0
 87 88  1  0
 88 89  1  0
 85 90  1  0
 85 91  1  1
 91 92  2  0
 91 93  1  0
 93 94  1  0
 94 95  1  0
 95 96  2  0
 95 97  1  0
 97 98  1  0
 98 99  1  0
 99100  1  0
100101  1  0
100102  1  0
 98103  1  0
103104  2  0
103105  1  0
105106  1  0
106107  1  0
107108  1  0
106109  1  0
109110  2  0
109111  1  0
 13  9  1  0
 32 89  2  0
  1112  1  0
  1113  1  0
  2114  1  1
  3115  1  0
  3116  1  0
  3117  1  0
  6118  1  0
  7119  1  1
  8120  1  0
  8121  1  0
 10122  1  0
 11123  1  0
 12124  1  0
 16125  1  0
 17126  1  6
 18127  1  0
 18128  1  0
 19129  1  0
 20130  1  0
 20131  1  0
 20132  1  0
 21133  1  0
 21134  1  0
 21135  1  0
 24136  1  0
 26137  1  0
 26138  1  0
 27139  1  0
 27140  1  0
 28141  1  0
 28142  1  0
 29143  1  0
 29144  1  0
 30145  1  0
 30146  1  0
 31147  1  0
 31148  1  0
 32149  1  0
 33150  1  0
 33151  1  0
 33152  1  0
 36153  1  0
 37154  1  6
 38155  1  0
 38156  1  0
 39157  1  0
 40158  1  0
 40159  1  0
 40160  1  0
 41161  1  0
 41162  1  0
 41163  1  0
 44164  1  0
 45165  1  6
 46166  1  0
 46167  1  0
 47168  1  0
 50169  1  0
 51170  1  6
 52171  1  0
 52172  1  0
 53173  1  0
 54174  1  0
 54175  1  0
 54176  1  0
 55177  1  0
 55178  1  0
 55179  1  0
 58180  1  0
 59181  1  6
 60182  1  0
 60183  1  0
 61184  1  0
 61185  1  0
 64186  1  0
 67187  1  0
 68188  1  6
 69189  1  0
 69190  1  0
 70191  1  0
 70192  1  0
 71193  1  0
 71194  1  0
 72195  1  0
 72196  1  0
 73197  1  0
 73198  1  0
 76199  1  0
 77200  1  6
 78201  1  0
 78202  1  0
 79203  1  0
 80204  1  0
 80205  1  0
 80206  1  0
 81207  1  0
 81208  1  0
 81209  1  0
 84210  1  0
 86211  1  0
 86212  1  0
 87213  1  0
 87214  1  0
 88215  1  0
 88216  1  0
 89217  1  0
 90218  1  0
 90219  1  0
 90220  1  0
 93221  1  0
 94222  1  0
 94223  1  0
 97224  1  0
 98225  1  6
 99226  1  0
 99227  1  0
100228  1  0
101229  1  0
101230  1  0
101231  1  0
102232  1  0
102233  1  0
102234  1  0
105235  1  0
106236  1  1
107237  1  0
107238  1  0
108239  1  0
108240  1  0
108241  1  0
111242  1  0
M  END
