
     RDKit          2D

389397  0  0  0  0  0  0  0  0999 V2000
  -25.7137    1.8379    0.0000 C   0  0  0  0  0  0  0  0  0  0  0  0
  -27.0374    1.1323    0.0000 N   0  0  0  0  0  0  0  0  0  0  0  0
  -28.3103    1.9258    0.0000 C   0  0  0  0  0  0  0  0  0  0  0  0
  -28.2596    3.4249    0.0000 C   0  0  0  0  0  0  0  0  0  0  0  0
  -29.5325    4.2184    0.0000 C   0  0  0  0  0  0  0  0  0  0  0  0
  -30.8562    3.5128    0.0000 C   0  0  0  0  0  0  0  0  0  0  0  0
  -30.9069    2.0136    0.0000 C   0  0  0  0  0  0  0  0  0  0  0  0
  -29.6340    1.2201    0.0000 C   0  0  0  0  0  0  0  0  0  0  0  0
  -32.3484    1.5986    0.0000 C   0  0  0  0  0  0  0  0  0  0  0  0
  -33.1885    2.8413    0.0000 O   0  0  0  0  0  0  0  0  0  0  0  0
  -32.2663    4.0243    0.0000 C   0  0  0  0  0  0  0  0  0  0  0  0
  -32.6813    5.4657    0.0000 O   0  0  0  0  0  0  0  0  0  0  0  0
  -33.8253    1.3366    0.0000 C   0  0  0  0  0  0  0  0  0  0  0  0
  -34.3368   -0.0735    0.0000 C   0  0  0  0  0  0  0  0  0  0  0  0
  -35.8137   -0.3356    0.0000 C   0  0  0  0  0  0  0  0  0  0  0  0
  -36.7791    0.8124    0.0000 C   0  0  0  0  0  0  0  0  0  0  0  0
  -36.2676    2.2225    0.0000 C   0  0  0  0  0  0  0  0  0  0  0  0
  -34.7907    2.4846    0.0000 C   0  0  0  0  0  0  0  0  0  0  0  0
  -38.2561    0.5503    0.0000 O   0  0  0  0  0  0  0  0  0  0  0  0
  -33.3714   -1.2216    0.0000 O   0  0  0  0  0  0  0  0  0  0  0  0
  -31.8944   -0.9595    0.0000 C   0  0  0  0  0  0  0  0  0  0  0  0
  -31.3829    0.4506    0.0000 C   0  0  0  0  0  0  0  0  0  0  0  0
  -30.1447    0.0546    0.0000 C   0  0  0  0  0  0  0  0  0  0  0  0
  -29.6298   -0.5576    0.0000 C   0  0  0  0  0  0  0  0  0  0  0  0
  -29.9026   -1.3097    0.0000 C   0  0  0  0  0  0  0  0  0  0  0  0
  -30.6903   -1.4495    0.0000 C   0  0  0  0  0  0  0  0  0  0  0  0
  -28.4867   -2.9935    0.0000 O   0  0  0  0  0  0  0  0  0  0  0  0
  -25.6630    3.3371    0.0000 S   0  0  0  0  0  0  0  0  0  0  0  0
  -24.4408    1.0444    0.0000 N   0  0  0  0  0  0  0  0  0  0  0  0
  -23.1171    1.7501    0.0000 C   0  0  0  0  0  0  0  0  0  0  0  0
  -21.8442    0.9566    0.0000 C   0  0  0  0  0  0  0  0  0  0  0  0
  -20.5206    1.6622    0.0000 C   0  0  0  0  0  0  0  0  0  0  0  0
  -20.6872    2.4418    0.0000 O   0  0  0  0  0  0  0  0  0  0  0  0
  -19.2476    0.8687    0.0000 N   0  0  0  0  0  0  0  0  0  0  0  0
  -17.9240    1.5744    0.0000 C   0  0  0  0  0  0  0  0  0  0  0  0
  -18.8487    2.7554    0.0000 C   0  0  0  0  0  0  0  0  0  0  0  0
  -20.3339    2.5450    0.0000 C   0  0  0  0  0  0  0  0  0  0  0  0
  -21.2587    3.7260    0.0000 C   0  0  0  0  0  0  0  0  0  0  0  0
  -22.7439    3.5157    0.0000 N   0  0  0  0  0  0  0  0  0  0  0  0
  -23.6686    4.6967    0.0000 C   0  0  0  0  0  0  0  0  0  0  0  0
  -25.1538    4.4863    0.0000 N   0  0  0  0  0  0  0  0  0  0  0  0
  -23.1082    6.0881    0.0000 N   0  0  0  0  0  0  0  0  0  0  0  0
  -16.4388    1.7847    0.0000 C   0  0  0  0  0  0  0  0  0  0  0  0
  -16.2317    3.2704    0.0000 O   0  0  0  0  0  0  0  0  0  0  0  0
  -15.5140    0.6037    0.0000 N   0  0  0  0  0  0  0  0  0  0  0  0
  -14.0288    0.8141    0.0000 C   0  0  0  0  0  0  0  0  0  0  0  0
  -14.4939    2.2402    0.0000 C   0  0  0  0  0  0  0  0  0  0  0  0
  -15.9615    2.5504    0.0000 C   0  0  0  0  0  0  0  0  0  0  0  0
  -16.4265    3.9765    0.0000 C   0  0  0  0  0  0  0  0  0  0  0  0
  -17.8453    4.4634    0.0000 N   0  0  0  0  0  0  0  0  0  0  0  0
  -15.4241    5.0923    0.0000 O   0  0  0  0  0  0  0  0  0  0  0  0
  -12.5613    0.5038    0.0000 C   0  0  0  0  0  0  0  0  0  0  0  0
  -11.8586    1.8290    0.0000 O   0  0  0  0  0  0  0  0  0  0  0  0
  -12.0962   -0.9223    0.0000 N   0  0  0  0  0  0  0  0  0  0  0  0
  -10.6287   -1.2325    0.0000 C   0  0  0  0  0  0  0  0  0  0  0  0
  -10.9340    0.2360    0.0000 C   0  0  0  0  0  0  0  0  0  0  0  0
  -10.7460    1.7242    0.0000 C   0  0  0  0  0  0  0  0  0  0  0  0
  -10.0849    3.0707    0.0000 C   0  0  0  0  0  0  0  0  0  0  0  0
   -9.0225    4.1296    0.0000 C   0  0  0  0  0  0  0  0  0  0  0  0
  -11.5023   -2.4519    0.0000 C   0  0  0  0  0  0  0  0  0  0  0  0
   -9.8630   -2.5224    0.0000 C   0  0  0  0  0  0  0  0  0  0  0  0
  -11.0092   -3.4899    0.0000 O   0  0  0  0  0  0  0  0  0  0  0  0
   -8.7200   -3.4938    0.0000 N   0  0  0  0  0  0  0  0  0  0  0  0
   -7.3235   -4.0414    0.0000 C   0  0  0  0  0  0  0  0  0  0  0  0
   -6.7806   -5.4397    0.0000 C   0  0  0  0  0  0  0  0  0  0  0  0
   -7.7201   -6.6090    0.0000 C   0  0  0  0  0  0  0  0  0  0  0  0
   -7.1772   -8.0073    0.0000 C   0  0  0  0  0  0  0  0  0  0  0  0
   -8.1166   -9.1766    0.0000 C   0  0  0  0  0  0  0  0  0  0  0  0
   -7.5737  -10.5749    0.0000 N   0  0  0  0  0  0  0  0  0  0  0  0
   -5.8249   -4.1059    0.0000 C   0  0  0  0  0  0  0  0  0  0  0  0
   -5.6418   -5.5946    0.0000 O   0  0  0  0  0  0  0  0  0  0  0  0
   -4.3865   -3.6803    0.0000 N   0  0  0  0  0  0  0  0  0  0  0  0
   -3.1643   -2.8107    0.0000 C   0  0  0  0  0  0  0  0  0  0  0  0
   -1.6968   -3.1210    0.0000 C   0  0  0  0  0  0  0  0  0  0  0  0
   -1.5906   -4.6172    0.0000 C   0  0  0  0  0  0  0  0  0  0  0  0
   -0.2116   -2.9106    0.0000 C   0  0  0  0  0  0  0  0  0  0  0  0
    0.2284   -4.3446    0.0000 C   0  0  0  0  0  0  0  0  0  0  0  0
   -2.2907   -1.5914    0.0000 C   0  0  0  0  0  0  0  0  0  0  0  0
   -0.8736   -2.0834    0.0000 O   0  0  0  0  0  0  0  0  0  0  0  0
   -1.8602   -0.1544    0.0000 N   0  0  0  0  0  0  0  0  0  0  0  0
   -1.9197    1.3444    0.0000 C   0  0  0  0  0  0  0  0  0  0  0  0
   -3.0037    2.3812    0.0000 C   0  0  0  0  0  0  0  0  0  0  0  0
   -3.3550    3.8395    0.0000 C   0  0  0  0  0  0  0  0  0  0  0  0
   -4.6432    3.0710    0.0000 C   0  0  0  0  0  0  0  0  0  0  0  0
   -6.1240    3.3104    0.0000 N   0  0  0  0  0  0  0  0  0  0  0  0
   -7.1045    4.4456    0.0000 C   0  0  0  0  0  0  0  0  0  0  0  0
   -7.1259    5.9454    0.0000 C   0  0  0  0  0  0  0  0  0  0  0  0
   -6.1782    7.1081    0.0000 C   0  0  0  0  0  0  0  0  0  0  0  0
   -4.7049    7.3897    0.0000 C   0  0  0  0  0  0  0  0  0  0  0  0
   -3.3953    6.6583    0.0000 C   0  0  0  0  0  0  0  0  0  0  0  0
   -2.8621    5.2562    0.0000 C   0  0  0  0  0  0  0  0  0  0  0  0
   -0.4473    1.0582    0.0000 C   0  0  0  0  0  0  0  0  0  0  0  0
   -0.4902   -0.4412    0.0000 O   0  0  0  0  0  0  0  0  0  0  0  0
    0.9461    1.6134    0.0000 N   0  0  0  0  0  0  0  0  0  0  0  0
    1.8182    2.8339    0.0000 C   0  0  0  0  0  0  0  0  0  0  0  0
    1.8919    4.3321    0.0000 C   0  0  0  0  0  0  0  0  0  0  0  0
    1.1440    5.6323    0.0000 C   0  0  0  0  0  0  0  0  0  0  0  0
   -0.1882    6.3218    0.0000 C   0  0  0  0  0  0  0  0  0  0  0  0
   -1.6816    6.1816    0.0000 C   0  0  0  0  0  0  0  0  0  0  0  0
    2.4435    4.1974    0.0000 C   0  0  0  0  0  0  0  0  0  0  0  0
    3.3155    5.4178    0.0000 C   0  0  0  0  0  0  0  0  0  0  0  0
    4.4027    6.4512    0.0000 C   0  0  0  0  0  0  0  0  0  0  0  0
    5.6659    7.2602    0.0000 C   0  0  0  0  0  0  0  0  0  0  0  0
    1.4622    1.3768    0.0000 C   0  0  0  0  0  0  0  0  0  0  0  0
   -0.0303    1.2270    0.0000 O   0  0  0  0  0  0  0  0  0  0  0  0
    1.3885   -0.1214    0.0000 N   0  0  0  0  0  0  0  0  0  0  0  0
    1.5996   -1.6065    0.0000 C   0  0  0  0  0  0  0  0  0  0  0  0
    0.5457   -2.6739    0.0000 C   0  0  0  0  0  0  0  0  0  0  0  0
    0.9431   -4.1203    0.0000 C   0  0  0  0  0  0  0  0  0  0  0  0
   -0.1108   -5.1876    0.0000 C   0  0  0  0  0  0  0  0  0  0  0  0
    0.1073   -6.6717    0.0000 N   0  0  0  0  0  0  0  0  0  0  0  0
   -1.5975   -4.9883    0.0000 O   0  0  0  0  0  0  0  0  0  0  0  0
    2.0879   -3.0248    0.0000 C   0  0  0  0  0  0  0  0  0  0  0  0
    1.0358   -4.0939    0.0000 O   0  0  0  0  0  0  0  0  0  0  0  0
    2.8359   -4.3250    0.0000 N   0  0  0  0  0  0  0  0  0  0  0  0
    3.8163   -5.4602    0.0000 C   0  0  0  0  0  0  0  0  0  0  0  0
    3.5068   -6.9279    0.0000 C   0  0  0  0  0  0  0  0  0  0  0  0
    2.0810   -7.3937    0.0000 C   0  0  0  0  0  0  0  0  0  0  0  0
    1.7714   -8.8614    0.0000 N   0  0  0  0  0  0  0  0  0  0  0  0
    0.9646   -6.3918    0.0000 O   0  0  0  0  0  0  0  0  0  0  0  0
    4.9940   -6.3893    0.0000 C   0  0  0  0  0  0  0  0  0  0  0  0
    4.3407   -7.7396    0.0000 O   0  0  0  0  0  0  0  0  0  0  0  0
    6.3261   -7.0788    0.0000 N   0  0  0  0  0  0  0  0  0  0  0  0
    7.7647   -7.5036    0.0000 C   0  0  0  0  0  0  0  0  0  0  0  0
    8.2978   -8.9057    0.0000 C   0  0  0  0  0  0  0  0  0  0  0  0
    7.3501  -10.0684    0.0000 C   0  0  0  0  0  0  0  0  0  0  0  0
    7.8832  -11.4705    0.0000 C   0  0  0  0  0  0  0  0  0  0  0  0
    6.9355  -12.6332    0.0000 N   0  0  0  0  0  0  0  0  0  0  0  0
    7.4686  -14.0353    0.0000 C   0  0  0  0  0  0  0  0  0  0  0  0
    6.5209  -15.1980    0.0000 N   0  0  0  0  0  0  0  0  0  0  0  0
    8.9494  -14.2746    0.0000 N   0  0  0  0  0  0  0  0  0  0  0  0
    9.2577   -7.6486    0.0000 C   0  0  0  0  0  0  0  0  0  0  0  0
    9.4381   -9.1377    0.0000 O   0  0  0  0  0  0  0  0  0  0  0  0
   10.7511   -7.5084    0.0000 N   0  0  0  0  0  0  0  0  0  0  0  0
   12.1910   -7.0881    0.0000 C   0  0  0  0  0  0  0  0  0  0  0  0
   13.3975   -7.9794    0.0000 C   0  0  0  0  0  0  0  0  0  0  0  0
   13.2289   -9.4699    0.0000 C   0  0  0  0  0  0  0  0  0  0  0  0
   14.4354  -10.3611    0.0000 C   0  0  0  0  0  0  0  0  0  0  0  0
   14.2667  -11.8516    0.0000 N   0  0  0  0  0  0  0  0  0  0  0  0
   15.4732  -12.7429    0.0000 C   0  0  0  0  0  0  0  0  0  0  0  0
   15.3046  -14.2334    0.0000 N   0  0  0  0  0  0  0  0  0  0  0  0
   16.8483  -12.1437    0.0000 N   0  0  0  0  0  0  0  0  0  0  0  0
   13.5253   -6.4029    0.0000 C   0  0  0  0  0  0  0  0  0  0  0  0
   14.4822   -7.5580    0.0000 O   0  0  0  0  0  0  0  0  0  0  0  0
   14.7059   -5.4775    0.0000 N   0  0  0  0  0  0  0  0  0  0  0  0
   15.6900   -4.3454    0.0000 C   0  0  0  0  0  0  0  0  0  0  0  0
   17.1868   -4.4430    0.0000 C   0  0  0  0  0  0  0  0  0  0  0  0
   17.8508   -5.7880    0.0000 C   0  0  0  0  0  0  0  0  0  0  0  0
   19.3476   -5.8855    0.0000 S   0  0  0  0  0  0  0  0  0  0  0  0
   20.0116   -7.2306    0.0000 C   0  0  0  0  0  0  0  0  0  0  0  0
   16.4420   -3.0476    0.0000 C   0  0  0  0  0  0  0  0  0  0  0  0
   17.8716   -3.5020    0.0000 O   0  0  0  0  0  0  0  0  0  0  0  0
   16.9349   -1.6309    0.0000 N   0  0  0  0  0  0  0  0  0  0  0  0
   17.1507   -0.1465    0.0000 C   0  0  0  0  0  0  0  0  0  0  0  0
   18.4627    0.5807    0.0000 C   0  0  0  0  0  0  0  0  0  0  0  0
   19.7484   -0.1918    0.0000 C   0  0  0  0  0  0  0  0  0  0  0  0
   21.0603    0.5354    0.0000 C   0  0  0  0  0  0  0  0  0  0  0  0
   22.3461   -0.2372    0.0000 C   0  0  0  0  0  0  0  0  0  0  0  0
   23.6580    0.4900    0.0000 N   0  0  0  0  0  0  0  0  0  0  0  0
   17.0817    1.3519    0.0000 C   0  0  0  0  0  0  0  0  0  0  0  0
   18.5300    1.7425    0.0000 O   0  0  0  0  0  0  0  0  0  0  0  0
   16.7304    2.8102    0.0000 N   0  0  0  0  0  0  0  0  0  0  0  0
   16.1095    4.1756    0.0000 C   0  0  0  0  0  0  0  0  0  0  0  0
   15.2413    5.3989    0.0000 C   0  0  0  0  0  0  0  0  0  0  0  0
   14.1574    6.4357    0.0000 C   0  0  0  0  0  0  0  0  0  0  0  0
   12.8968    7.2487    0.0000 C   0  0  0  0  0  0  0  0  0  0  0  0
   11.5051    7.8084    0.0000 C   0  0  0  0  0  0  0  0  0  0  0  0
   10.0327    8.0946    0.0000 C   0  0  0  0  0  0  0  0  0  0  0  0
    8.5327    8.0970    0.0000 C   0  0  0  0  0  0  0  0  0  0  0  0
    7.0593    7.8155    0.0000 C   0  0  0  0  0  0  0  0  0  0  0  0
   17.6086    4.1257    0.0000 C   0  0  0  0  0  0  0  0  0  0  0  0
   16.8200    5.4967    0.0000 C   0  0  0  0  0  0  0  0  0  0  0  0
   16.3633    6.9255    0.0000 O   0  0  0  0  0  0  0  0  0  0  0  0
   18.3193    5.5419    0.0000 N   0  0  0  0  0  0  0  0  0  0  0  0
   19.0298    6.8630    0.0000 C   0  0  0  0  0  0  0  0  0  0  0  0
   19.2456    8.3474    0.0000 C   0  0  0  0  0  0  0  0  0  0  0  0
   20.6391    8.9026    0.0000 C   0  0  0  0  0  0  0  0  0  0  0  0
   20.8549   10.3870    0.0000 C   0  0  0  0  0  0  0  0  0  0  0  0
   22.2483   10.9423    0.0000 C   0  0  0  0  0  0  0  0  0  0  0  0
   22.4642   12.4267    0.0000 N   0  0  0  0  0  0  0  0  0  0  0  0
   20.5291    6.9082    0.0000 C   0  0  0  0  0  0  0  0  0  0  0  0
   21.3179    5.6323    0.0000 O   0  0  0  0  0  0  0  0  0  0  0  0
   21.2396    8.2292    0.0000 N   0  0  0  0  0  0  0  0  0  0  0  0
   22.7389    8.2744    0.0000 C   0  0  0  0  0  0  0  0  0  0  0  0
   24.1633    7.8041    0.0000 C   0  0  0  0  0  0  0  0  0  0  0  0
   24.4682    6.3354    0.0000 C   0  0  0  0  0  0  0  0  0  0  0  0
   25.8925    5.8651    0.0000 C   0  0  0  0  0  0  0  0  0  0  0  0
   26.1974    4.3964    0.0000 C   0  0  0  0  0  0  0  0  0  0  0  0
   27.6218    3.9261    0.0000 N   0  0  0  0  0  0  0  0  0  0  0  0
   23.4495    9.5955    0.0000 C   0  0  0  0  0  0  0  0  0  0  0  0
   24.9321    9.8231    0.0000 O   0  0  0  0  0  0  0  0  0  0  0  0
   22.9928   11.0243    0.0000 O   0  0  0  0  0  0  0  0  0  0  0  0
  -26.9050   -0.3619    0.0000 H   0  0  0  0  0  0  0  0  0  0  0  0
  -26.9359    4.1306    0.0000 H   0  0  0  0  0  0  0  0  0  0  0  0
  -29.4818    5.7176    0.0000 H   0  0  0  0  0  0  0  0  0  0  0  0
  -29.3204   -0.2467    0.0000 H   0  0  0  0  0  0  0  0  0  0  0  0
  -36.3252   -1.7457    0.0000 H   0  0  0  0  0  0  0  0  0  0  0  0
  -37.2331    3.3705    0.0000 H   0  0  0  0  0  0  0  0  0  0  0  0
  -34.2792    3.8947    0.0000 H   0  0  0  0  0  0  0  0  0  0  0  0
  -39.2215    1.6984    0.0000 H   0  0  0  0  0  0  0  0  0  0  0  0
  -29.3945    2.1228    0.0000 H   0  0  0  0  0  0  0  0  0  0  0  0
  -27.4427   -0.3553    0.0000 H   0  0  0  0  0  0  0  0  0  0  0  0
  -31.4405   -3.5176    0.0000 H   0  0  0  0  0  0  0  0  0  0  0  0
  -28.9982   -4.4035    0.0000 H   0  0  0  0  0  0  0  0  0  0  0  0
  -24.4915   -0.4547    0.0000 H   0  0  0  0  0  0  0  0  0  0  0  0
  -24.0419    2.9311    0.0000 H   0  0  0  0  0  0  0  0  0  0  0  0
  -22.4144    3.0753    0.0000 H   0  0  0  0  0  0  0  0  0  0  0  0
  -22.8467   -0.1592    0.0000 H   0  0  0  0  0  0  0  0  0  0  0  0
  -20.9194   -0.2244    0.0000 H   0  0  0  0  0  0  0  0  0  0  0  0
  -19.2983   -0.6304    0.0000 H   0  0  0  0  0  0  0  0  0  0  0  0
  -17.4589    0.1483    0.0000 H   0  0  0  0  0  0  0  0  0  0  0  0
  -19.1365    4.2275    0.0000 H   0  0  0  0  0  0  0  0  0  0  0  0
  -17.6210    3.6171    0.0000 H   0  0  0  0  0  0  0  0  0  0  0  0
  -21.6576    1.8394    0.0000 H   0  0  0  0  0  0  0  0  0  0  0  0
  -20.2277    1.0488    0.0000 H   0  0  0  0  0  0  0  0  0  0  0  0
  -21.7238    5.1521    0.0000 H   0  0  0  0  0  0  0  0  0  0  0  0
  -20.0309    4.5878    0.0000 H   0  0  0  0  0  0  0  0  0  0  0  0
  -23.6243    2.3012    0.0000 H   0  0  0  0  0  0  0  0  0  0  0  0
  -26.0786    5.6673    0.0000 H   0  0  0  0  0  0  0  0  0  0  0  0
  -24.0330    7.2691    0.0000 H   0  0  0  0  0  0  0  0  0  0  0  0
  -21.6231    6.2984    0.0000 H   0  0  0  0  0  0  0  0  0  0  0  0
  -16.0744   -0.7877    0.0000 H   0  0  0  0  0  0  0  0  0  0  0  0
  -14.0796   -0.6851    0.0000 H   0  0  0  0  0  0  0  0  0  0  0  0
  -14.4432    3.7393    0.0000 H   0  0  0  0  0  0  0  0  0  0  0  0
  -13.0087    2.4505    0.0000 H   0  0  0  0  0  0  0  0  0  0  0  0
  -17.4466    2.3401    0.0000 H   0  0  0  0  0  0  0  0  0  0  0  0
  -16.3734    1.1081    0.0000 H   0  0  0  0  0  0  0  0  0  0  0  0
  -18.3592    5.7129    0.0000 H   0  0  0  0  0  0  0  0  0  0  0  0
  -19.1781    3.4638    0.0000 H   0  0  0  0  0  0  0  0  0  0  0  0
  -13.2272   -1.9076    0.0000 H   0  0  0  0  0  0  0  0  0  0  0  0
  -12.3303   -0.3119    0.0000 H   0  0  0  0  0  0  0  0  0  0  0  0
  -11.9967    1.2946    0.0000 H   0  0  0  0  0  0  0  0  0  0  0  0
  -12.2446    1.6593    0.0000 H   0  0  0  0  0  0  0  0  0  0  0  0
  -11.8460    2.7440    0.0000 H   0  0  0  0  0  0  0  0  0  0  0  0
  -11.5645    3.3174    0.0000 H   0  0  0  0  0  0  0  0  0  0  0  0
  -10.6279    4.4690    0.0000 H   0  0  0  0  0  0  0  0  0  0  0  0
   -9.8921    5.3518    0.0000 H   0  0  0  0  0  0  0  0  0  0  0  0
  -13.0019   -2.4880    0.0000 H   0  0  0  0  0  0  0  0  0  0  0  0
  -11.9062   -3.8964    0.0000 H   0  0  0  0  0  0  0  0  0  0  0  0
  -10.3470   -3.4085    0.0000 H   0  0  0  0  0  0  0  0  0  0  0  0
   -9.4900   -4.7811    0.0000 H   0  0  0  0  0  0  0  0  0  0  0  0
   -8.5071   -4.9628    0.0000 H   0  0  0  0  0  0  0  0  0  0  0  0
   -5.6620   -6.4390    0.0000 H   0  0  0  0  0  0  0  0  0  0  0  0
   -5.3478   -4.9957    0.0000 H   0  0  0  0  0  0  0  0  0  0  0  0
   -9.0881   -7.2243    0.0000 H   0  0  0  0  0  0  0  0  0  0  0  0
   -8.8387   -5.6096    0.0000 H   0  0  0  0  0  0  0  0  0  0  0  0
   -6.1887   -9.1356    0.0000 H   0  0  0  0  0  0  0  0  0  0  0  0
   -5.8092   -7.3920    0.0000 H   0  0  0  0  0  0  0  0  0  0  0  0
   -9.3994   -9.9541    0.0000 H   0  0  0  0  0  0  0  0  0  0  0  0
   -9.2352   -8.1773    0.0000 H   0  0  0  0  0  0  0  0  0  0  0  0
   -8.5132  -11.7443    0.0000 H   0  0  0  0  0  0  0  0  0  0  0  0
   -6.0913  -10.8039    0.0000 H   0  0  0  0  0  0  0  0  0  0  0  0
   -3.7300   -5.0289    0.0000 H   0  0  0  0  0  0  0  0  0  0  0  0
   -3.0402   -4.3055    0.0000 H   0  0  0  0  0  0  0  0  0  0  0  0
   -1.2848   -1.6786    0.0000 H   0  0  0  0  0  0  0  0  0  0  0  0
    0.0335   -5.4517    0.0000 H   0  0  0  0  0  0  0  0  0  0  0  0
   -1.2824   -6.0462    0.0000 H   0  0  0  0  0  0  0  0  0  0  0  0
   -2.6871   -4.9156    0.0000 H   0  0  0  0  0  0  0  0  0  0  0  0
    1.2884   -2.9091    0.0000 H   0  0  0  0  0  0  0  0  0  0  0  0
   -0.6766   -1.4845    0.0000 H   0  0  0  0  0  0  0  0  0  0  0  0
    2.2336   -4.6181    0.0000 H   0  0  0  0  0  0  0  0  0  0  0  0
    1.0282   -5.6247    0.0000 H   0  0  0  0  0  0  0  0  0  0  0  0
   -0.6105   -4.7972    0.0000 H   0  0  0  0  0  0  0  0  0  0  0  0
   -0.4618   -0.6970    0.0000 H   0  0  0  0  0  0  0  0  0  0  0  0
   -2.2664   -0.1150    0.0000 H   0  0  0  0  0  0  0  0  0  0  0  0
   -3.6290    1.0178    0.0000 H   0  0  0  0  0  0  0  0  0  0  0  0
   -4.4874    2.1606    0.0000 H   0  0  0  0  0  0  0  0  0  0  0  0
   -4.3617    1.5977    0.0000 H   0  0  0  0  0  0  0  0  0  0  0  0
   -6.8554    2.0008    0.0000 H   0  0  0  0  0  0  0  0  0  0  0  0
   -8.5426    6.4383    0.0000 H   0  0  0  0  0  0  0  0  0  0  0  0
   -6.9467    8.3963    0.0000 H   0  0  0  0  0  0  0  0  0  0  0  0
   -4.4655    8.8704    0.0000 H   0  0  0  0  0  0  0  0  0  0  0  0
   -2.3880    7.7698    0.0000 H   0  0  0  0  0  0  0  0  0  0  0  0
    1.5583    0.2441    0.0000 H   0  0  0  0  0  0  0  0  0  0  0  0
    2.7307    5.5757    0.0000 H   0  0  0  0  0  0  0  0  0  0  0  0
    3.2836    3.7724    0.0000 H   0  0  0  0  0  0  0  0  0  0  0  0
    1.5392    7.0793    0.0000 H   0  0  0  0  0  0  0  0  0  0  0  0
    2.5054    6.2620    0.0000 H   0  0  0  0  0  0  0  0  0  0  0  0
   -0.8091    7.6872    0.0000 H   0  0  0  0  0  0  0  0  0  0  0  0
    0.7650    7.4800    0.0000 H   0  0  0  0  0  0  0  0  0  0  0  0
   -2.0629    7.6323    0.0000 H   0  0  0  0  0  0  0  0  0  0  0  0
    0.9441    4.1522    0.0000 H   0  0  0  0  0  0  0  0  0  0  0  0
    1.9037    5.5969    0.0000 H   0  0  0  0  0  0  0  0  0  0  0  0
    2.1205    6.3245    0.0000 H   0  0  0  0  0  0  0  0  0  0  0  0
    2.7010    6.7862    0.0000 H   0  0  0  0  0  0  0  0  0  0  0  0
    3.0673    7.1344    0.0000 H   0  0  0  0  0  0  0  0  0  0  0  0
    4.2388    7.9423    0.0000 H   0  0  0  0  0  0  0  0  0  0  0  0
    4.9807    8.5945    0.0000 H   0  0  0  0  0  0  0  0  0  0  0  0
   -0.0487   -0.5509    0.0000 H   0  0  0  0  0  0  0  0  0  0  0  0
    0.1752   -1.1362    0.0000 H   0  0  0  0  0  0  0  0  0  0  0  0
   -0.6140   -3.6253    0.0000 H   0  0  0  0  0  0  0  0  0  0  0  0
   -0.3225   -1.4506    0.0000 H   0  0  0  0  0  0  0  0  0  0  0  0
    1.6556   -5.4402    0.0000 H   0  0  0  0  0  0  0  0  0  0  0  0
    2.3667   -3.6477    0.0000 H   0  0  0  0  0  0  0  0  0  0  0  0
   -0.7673   -7.7014    0.0000 H   0  0  0  0  0  0  0  0  0  0  0  0
    1.6068   -7.3975    0.0000 H   0  0  0  0  0  0  0  0  0  0  0  0
    1.8590   -5.4633    0.0000 H   0  0  0  0  0  0  0  0  0  0  0  0
    2.4203   -6.0089    0.0000 H   0  0  0  0  0  0  0  0  0  0  0  0
    3.5353   -8.4276    0.0000 H   0  0  0  0  0  0  0  0  0  0  0  0
    4.9493   -7.3392    0.0000 H   0  0  0  0  0  0  0  0  0  0  0  0
    0.3456   -9.3272    0.0000 H   0  0  0  0  0  0  0  0  0  0  0  0
    2.8877   -9.8633    0.0000 H   0  0  0  0  0  0  0  0  0  0  0  0
    5.6009   -8.3918    0.0000 H   0  0  0  0  0  0  0  0  0  0  0  0
    6.6186   -8.4714    0.0000 H   0  0  0  0  0  0  0  0  0  0  0  0
    9.2783  -10.0409    0.0000 H   0  0  0  0  0  0  0  0  0  0  0  0
    9.7336   -8.4718    0.0000 H   0  0  0  0  0  0  0  0  0  0  0  0
    6.0619  -10.8369    0.0000 H   0  0  0  0  0  0  0  0  0  0  0  0
    6.1241   -9.2042    0.0000 H   0  0  0  0  0  0  0  0  0  0  0  0
    8.8637  -12.6057    0.0000 H   0  0  0  0  0  0  0  0  0  0  0  0
    9.2555  -10.8648    0.0000 H   0  0  0  0  0  0  0  0  0  0  0  0
    5.4547  -12.3939    0.0000 H   0  0  0  0  0  0  0  0  0  0  0  0
    7.0540  -16.6001    0.0000 H   0  0  0  0  0  0  0  0  0  0  0  0
    9.4825  -15.6767    0.0000 H   0  0  0  0  0  0  0  0  0  0  0  0
    9.8971  -13.1119    0.0000 H   0  0  0  0  0  0  0  0  0  0  0  0
   10.8509   -9.0051    0.0000 H   0  0  0  0  0  0  0  0  0  0  0  0
   11.7501   -8.5218    0.0000 H   0  0  0  0  0  0  0  0  0  0  0  0
   14.8361   -8.4042    0.0000 H   0  0  0  0  0  0  0  0  0  0  0  0
   14.3708   -6.8380    0.0000 H   0  0  0  0  0  0  0  0  0  0  0  0
   12.5606  -10.8128    0.0000 H   0  0  0  0  0  0  0  0  0  0  0  0
   11.7302   -9.4057    0.0000 H   0  0  0  0  0  0  0  0  0  0  0  0
   15.8739  -10.7860    0.0000 H   0  0  0  0  0  0  0  0  0  0  0  0
   15.2623   -9.1097    0.0000 H   0  0  0  0  0  0  0  0  0  0  0  0
   12.8916  -12.4508    0.0000 H   0  0  0  0  0  0  0  0  0  0  0  0
   16.5111  -15.1247    0.0000 H   0  0  0  0  0  0  0  0  0  0  0  0
   18.0548  -13.0350    0.0000 H   0  0  0  0  0  0  0  0  0  0  0  0
   17.0170  -10.6532    0.0000 H   0  0  0  0  0  0  0  0  0  0  0  0
   15.5990   -6.6826    0.0000 H   0  0  0  0  0  0  0  0  0  0  0  0
   16.0942   -5.7899    0.0000 H   0  0  0  0  0  0  0  0  0  0  0  0
   18.6672   -4.2013    0.0000 H   0  0  0  0  0  0  0  0  0  0  0  0
   17.3886   -2.9566    0.0000 H   0  0  0  0  0  0  0  0  0  0  0  0
   17.8317   -7.2879    0.0000 H   0  0  0  0  0  0  0  0  0  0  0  0
   16.5554   -6.5442    0.0000 H   0  0  0  0  0  0  0  0  0  0  0  0
   21.5084   -7.3281    0.0000 H   0  0  0  0  0  0  0  0  0  0  0  0
   20.1755   -8.7216    0.0000 H   0  0  0  0  0  0  0  0  0  0  0  0
   18.6336   -7.8233    0.0000 H   0  0  0  0  0  0  0  0  0  0  0  0
   18.3378   -2.1618    0.0000 H   0  0  0  0  0  0  0  0  0  0  0  0
   18.2718   -1.1431    0.0000 H   0  0  0  0  0  0  0  0  0  0  0  0
   19.4468    1.7128    0.0000 H   0  0  0  0  0  0  0  0  0  0  0  0
   17.8288    1.9402    0.0000 H   0  0  0  0  0  0  0  0  0  0  0  0
   20.5433   -1.4639    0.0000 H   0  0  0  0  0  0  0  0  0  0  0  0
   19.0675   -1.5284    0.0000 H   0  0  0  0  0  0  0  0  0  0  0  0
   22.0444    1.6674    0.0000 H   0  0  0  0  0  0  0  0  0  0  0  0
   20.2655    1.8075    0.0000 H   0  0  0  0  0  0  0  0  0  0  0  0
   23.2901   -1.4029    0.0000 H   0  0  0  0  0  0  0  0  0  0  0  0
   21.5073   -1.4808    0.0000 H   0  0  0  0  0  0  0  0  0  0  0  0
   24.9438   -0.2825    0.0000 H   0  0  0  0  0  0  0  0  0  0  0  0
   23.6842    1.9898    0.0000 H   0  0  0  0  0  0  0  0  0  0  0  0
   18.1977    3.1220    0.0000 H   0  0  0  0  0  0  0  0  0  0  0  0
   15.6890    6.8305    0.0000 H   0  0  0  0  0  0  0  0  0  0  0  0
   16.6221    5.9851    0.0000 H   0  0  0  0  0  0  0  0  0  0  0  0
   14.5064    7.8946    0.0000 H   0  0  0  0  0  0  0  0  0  0  0  0
   15.4022    7.2726    0.0000 H   0  0  0  0  0  0  0  0  0  0  0  0
   12.9634    8.7472    0.0000 H   0  0  0  0  0  0  0  0  0  0  0  0
   14.0817    8.1685    0.0000 H   0  0  0  0  0  0  0  0  0  0  0  0
   11.2870    9.2925    0.0000 H   0  0  0  0  0  0  0  0  0  0  0  0
   12.4946    8.9358    0.0000 H   0  0  0  0  0  0  0  0  0  0  0  0
    9.5376    9.5106    0.0000 H   0  0  0  0  0  0  0  0  0  0  0  0
   10.7909    9.3889    0.0000 H   0  0  0  0  0  0  0  0  0  0  0  0
    7.6262    9.2921    0.0000 H   0  0  0  0  0  0  0  0  0  0  0  0
    9.0322    9.5114    0.0000 H   0  0  0  0  0  0  0  0  0  0  0  0
    6.6390    9.2554    0.0000 H   0  0  0  0  0  0  0  0  0  0  0  0
   18.6861    5.1693    0.0000 H   0  0  0  0  0  0  0  0  0  0  0  0
   19.0003    3.5660    0.0000 H   0  0  0  0  0  0  0  0  0  0  0  0
   17.6634    2.6267    0.0000 H   0  0  0  0  0  0  0  0  0  0  0  0
   19.2577    4.3717    0.0000 H   0  0  0  0  0  0  0  0  0  0  0  0
   17.6054    7.3333    0.0000 H   0  0  0  0  0  0  0  0  0  0  0  0
   18.7640    9.7679    0.0000 H   0  0  0  0  0  0  0  0  0  0  0  0
   17.7463    8.3021    0.0000 H   0  0  0  0  0  0  0  0  0  0  0  0
   22.1327    8.7647    0.0000 H   0  0  0  0  0  0  0  0  0  0  0  0
   21.5979    7.7491    0.0000 H   0  0  0  0  0  0  0  0  0  0  0  0
   20.5500   11.8557    0.0000 H   0  0  0  0  0  0  0  0  0  0  0  0
   19.3613   10.5249    0.0000 H   0  0  0  0  0  0  0  0  0  0  0  0
   23.7477   10.9875    0.0000 H   0  0  0  0  0  0  0  0  0  0  0  0
   22.7300    9.5217    0.0000 H   0  0  0  0  0  0  0  0  0  0  0  0
   23.8576   12.9820    0.0000 H   0  0  0  0  0  0  0  0  0  0  0  0
   21.2866   13.3558    0.0000 H   0  0  0  0  0  0  0  0  0  0  0  0
   20.7830    9.6580    0.0000 H   0  0  0  0  0  0  0  0  0  0  0  0
   22.3438    6.8274    0.0000 H   0  0  0  0  0  0  0  0  0  0  0  0
   25.6459    8.0317    0.0000 H   0  0  0  0  0  0  0  0  0  0  0  0
   24.5585    9.2511    0.0000 H   0  0  0  0  0  0  0  0  0  0  0  0
   24.0730    4.8884    0.0000 H   0  0  0  0  0  0  0  0  0  0  0  0
   22.9856    6.1078    0.0000 H   0  0  0  0  0  0  0  0  0  0  0  0
   27.3919    5.9103    0.0000 H   0  0  0  0  0  0  0  0  0  0  0  0
   26.2877    7.3121    0.0000 H   0  0  0  0  0  0  0  0  0  0  0  0
   25.9816    2.9120    0.0000 H   0  0  0  0  0  0  0  0  0  0  0  0
   24.7148    4.1688    0.0000 H   0  0  0  0  0  0  0  0  0  0  0  0
   27.9267    2.4574    0.0000 H   0  0  0  0  0  0  0  0  0  0  0  0
   28.7413    4.9245    0.0000 H   0  0  0  0  0  0  0  0  0  0  0  0
   23.3712   12.1924    0.0000 H   0  0  0  0  0  0  0  0  0  0  0  0
  1  2  1  0
  2  3  1  0
  3  4  2  0
  4  5  1  0
  5  6  2  0
  6  7  1  0
  7  8  2  0
  7  9  1  0
  9 10  1  0
 10 11  1  0
 11 12  2  0
  9 13  1  0
 13 14  1  0
 14 15  2  0
 15 16  1  0
 16 17  2  0
 17 18  1  0
 16 19  1  0
 14 20  1  0
 20 21  1  0
 21 22  2  0
 22 23  1  0
 23 24  2  0
 24 25  1  0
 25 26  2  0
 25 27  1  0
  1 28  2  0
  1 29  1  0
 29 30  1  0
 30 31  1  0
 31 32  1  0
 32 33  2  0
 32 34  1  0
 34 35  1  0
 35 36  1  0
 36 37  1  0
 37 38  1  0
 38 39  1  0
 39 40  1  0
 40 41  2  3
 40 42  1  0
 35 43  1  0
 43 44  2  0
 43 45  1  0
 45 46  1  0
 46 47  1  0
 47 48  1  0
 48 49  1  0
 49 50  1  0
 49 51  2  0
 46 52  1  0
 52 53  2  0
 52 54  1  0
 55 54  1  1
 55 56  1  0
 56 57  1  0
 57 58  1  0
 58 59  1  0
 55 60  1  0
 55 61  1  0
 61 62  2  0
 61 63  1  0
 63 64  1  0
 64 65  1  0
 65 66  1  0
 66 67  1  0
 67 68  1  0
 68 69  1  0
 64 70  1  0
 70 71  2  0
 70 72  1  0
 72 73  1  0
 73 74  1  0
 74 75  1  0
 74 76  1  0
 76 77  1  0
 73 78  1  0
 78 79  2  0
 78 80  1  0
 80 81  1  0
 81 82  1  0
 82 83  1  0
 83 84  2  0
 84 85  1  0
 85 86  1  0
 86 87  1  0
 87 88  2  0
 88 89  1  0
 89 90  2  0
 90 91  1  0
 81 92  1  0
 92 93  2  0
 92 94  1  0
 94 95  1  0
 95 96  1  0
 96 97  1  0
 97 98  1  0
 98 99  1  0
 95100  1  0
100101  1  0
101102  1  0
102103  1  0
 95104  1  0
104105  2  0
104106  1  0
106107  1  0
107108  1  0
108109  1  0
109110  1  0
110111  1  0
110112  2  0
107113  1  0
113114  2  0
113115  1  0
115116  1  0
116117  1  0
117118  1  0
118119  1  0
118120  2  0
116121  1  0
121122  2  0
121123  1  0
123124  1  0
124125  1  0
125126  1  0
126127  1  0
127128  1  0
128129  1  0
129130  2  3
129131  1  0
124132  1  0
132133  2  0
132134  1  0
134135  1  0
135136  1  0
136137  1  0
137138  1  0
138139  1  0
139140  1  0
140141  2  3
140142  1  0
135143  1  0
143144  2  0
143145  1  0
145146  1  0
146147  1  0
147148  1  0
148149  1  0
149150  1  0
146151  1  0
151152  2  0
151153  1  0
153154  1  0
154155  1  0
155156  1  0
156157  1  0
157158  1  0
158159  1  0
154160  1  0
160161  2  0
160162  1  0
162163  1  0
163164  1  0
164165  1  0
165166  1  0
166167  1  0
167168  1  0
168169  1  0
169170  1  0
163171  1  0
163172  1  1
172173  2  0
172174  1  0
174175  1  0
175176  1  0
176177  1  0
177178  1  0
178179  1  0
179180  1  0
175181  1  0
181182  2  0
181183  1  0
183184  1  0
184185  1  0
185186  1  0
186187  1  0
187188  1  0
188189  1  0
184190  1  0
190191  2  0
190192  1  0
  8  3  1  0
 91 83  1  0
 11  6  1  0
 59 86  2  0
 99 91  2  0
 18 13  2  0
103170  2  0
 22  9  1  0
 26 21  1  0
  2193  1  0
  4194  1  0
  5195  1  0
  8196  1  0
 15197  1  0
 17198  1  0
 18199  1  0
 19200  1  0
 23201  1  0
 24202  1  0
 26203  1  0
 27204  1  0
 29205  1  0
 30206  1  0
 30207  1  0
 31208  1  0
 31209  1  0
 34210  1  0
 35211  1  1
 36212  1  0
 36213  1  0
 37214  1  0
 37215  1  0
 38216  1  0
 38217  1  0
 39218  1  0
 41219  1  0
 42220  1  0
 42221  1  0
 45222  1  0
 46223  1  1
 47224  1  0
 47225  1  0
 48226  1  0
 48227  1  0
 50228  1  0
 50229  1  0
 54230  1  0
 56231  1  0
 56232  1  0
 57233  1  0
 57234  1  0
 58235  1  0
 58236  1  0
 59237  1  0
 60238  1  0
 60239  1  0
 60240  1  0
 63241  1  0
 64242  1  6
 65243  1  0
 65244  1  0
 66245  1  0
 66246  1  0
 67247  1  0
 67248  1  0
 68249  1  0
 68250  1  0
 69251  1  0
 69252  1  0
 72253  1  0
 73254  1  6
 74255  1  1
 75256  1  0
 75257  1  0
 75258  1  0
 76259  1  0
 76260  1  0
 77261  1  0
 77262  1  0
 77263  1  0
 80264  1  0
 81265  1  1
 82266  1  0
 82267  1  0
 84268  1  0
 85269  1  0
 87270  1  0
 88271  1  0
 89272  1  0
 90273  1  0
 94274  1  0
 96275  1  0
 96276  1  0
 97277  1  0
 97278  1  0
 98279  1  0
 98280  1  0
 99281  1  0
100282  1  0
100283  1  0
101284  1  0
101285  1  0
102286  1  0
102287  1  0
103288  1  0
106289  1  0
107290  1  6
108291  1  0
108292  1  0
109293  1  0
109294  1  0
111295  1  0
111296  1  0
115297  1  0
116298  1  6
117299  1  0
117300  1  0
119301  1  0
119302  1  0
123303  1  0
124304  1  6
125305  1  0
125306  1  0
126307  1  0
126308  1  0
127309  1  0
127310  1  0
128311  1  0
130312  1  0
131313  1  0
131314  1  0
134315  1  0
135316  1  6
136317  1  0
136318  1  0
137319  1  0
137320  1  0
138321  1  0
138322  1  0
139323  1  0
141324  1  0
142325  1  0
142326  1  0
145327  1  0
146328  1  6
147329  1  0
147330  1  0
148331  1  0
148332  1  0
150333  1  0
150334  1  0
150335  1  0
153336  1  0
154337  1  6
155338  1  0
155339  1  0
156340  1  0
156341  1  0
157342  1  0
157343  1  0
158344  1  0
158345  1  0
159346  1  0
159347  1  0
162348  1  0
164349  1  0
164350  1  0
165351  1  0
165352  1  0
166353  1  0
166354  1  0
167355  1  0
167356  1  0
168357  1  0
168358  1  0
169359  1  0
169360  1  0
170361  1  0
171362  1  0
171363  1  0
171364  1  0
174365  1  0
175366  1  1
176367  1  0
176368  1  0
177369  1  0
177370  1  0
178371  1  0
178372  1  0
179373  1  0
179374  1  0
180375  1  0
180376  1  0
183377  1  0
184378  1  6
185379  1  0
185380  1  0
186381  1  0
186382  1  0
187383  1  0
187384  1  0
188385  1  0
188386  1  0
189387  1  0
189388  1  0
192389  1  0
M  END
