
     RDKit          2D

381386  0  0  0  0  0  0  0  0999 V2000
   22.4481   -0.1436    0.0000 C   0  0  0  0  0  0  0  0  0  0  0  0
   23.4163    1.0021    0.0000 N   0  0  0  0  0  0  0  0  0  0  0  0
   24.8926    0.7364    0.0000 C   0  0  0  0  0  0  0  0  0  0  0  0
   25.4006   -0.6749    0.0000 C   0  0  0  0  0  0  0  0  0  0  0  0
   26.8769   -0.9406    0.0000 C   0  0  0  0  0  0  0  0  0  0  0  0
   27.8451    0.2051    0.0000 C   0  0  0  0  0  0  0  0  0  0  0  0
   27.3371    1.6164    0.0000 C   0  0  0  0  0  0  0  0  0  0  0  0
   25.8608    1.8821    0.0000 C   0  0  0  0  0  0  0  0  0  0  0  0
   28.5223    2.5358    0.0000 C   0  0  0  0  0  0  0  0  0  0  0  0
   29.7629    1.6926    0.0000 O   0  0  0  0  0  0  0  0  0  0  0  0
   29.3444    0.2522    0.0000 C   0  0  0  0  0  0  0  0  0  0  0  0
   30.2637   -0.9331    0.0000 O   0  0  0  0  0  0  0  0  0  0  0  0
   29.7972    3.3262    0.0000 C   0  0  0  0  0  0  0  0  0  0  0  0
   29.7501    4.8254    0.0000 C   0  0  0  0  0  0  0  0  0  0  0  0
   31.0250    5.6158    0.0000 C   0  0  0  0  0  0  0  0  0  0  0  0
   32.3469    4.9070    0.0000 C   0  0  0  0  0  0  0  0  0  0  0  0
   32.3940    3.4077    0.0000 C   0  0  0  0  0  0  0  0  0  0  0  0
   31.1191    2.6173    0.0000 C   0  0  0  0  0  0  0  0  0  0  0  0
   33.6218    5.6974    0.0000 O   0  0  0  0  0  0  0  0  0  0  0  0
   28.4282    5.5343    0.0000 O   0  0  0  0  0  0  0  0  0  0  0  0
   27.1533    4.7439    0.0000 C   0  0  0  0  0  0  0  0  0  0  0  0
   27.2004    3.2446    0.0000 C   0  0  0  0  0  0  0  0  0  0  0  0
   25.9036    3.1539    0.0000 C   0  0  0  0  0  0  0  0  0  0  0  0
   25.1985    3.5319    0.0000 C   0  0  0  0  0  0  0  0  0  0  0  0
   25.1734    4.3315    0.0000 C   0  0  0  0  0  0  0  0  0  0  0  0
   25.8533    4.7531    0.0000 C   0  0  0  0  0  0  0  0  0  0  0  0
   23.2346    5.3712    0.0000 O   0  0  0  0  0  0  0  0  0  0  0  0
   23.1244   -1.4825    0.0000 S   0  0  0  0  0  0  0  0  0  0  0  0
   20.9718    0.1221    0.0000 N   0  0  0  0  0  0  0  0  0  0  0  0
   20.0036   -1.0236    0.0000 C   0  0  0  0  0  0  0  0  0  0  0  0
   18.5273   -0.7579    0.0000 C   0  0  0  0  0  0  0  0  0  0  0  0
   17.5591   -1.9036    0.0000 C   0  0  0  0  0  0  0  0  0  0  0  0
   18.0025   -2.5660    0.0000 O   0  0  0  0  0  0  0  0  0  0  0  0
   16.0828   -1.6379    0.0000 N   0  0  0  0  0  0  0  0  0  0  0  0
   15.1146   -2.7836    0.0000 C   0  0  0  0  0  0  0  0  0  0  0  0
   16.4109   -3.5382    0.0000 C   0  0  0  0  0  0  0  0  0  0  0  0
   17.7126   -2.7927    0.0000 C   0  0  0  0  0  0  0  0  0  0  0  0
   19.0090   -3.5473    0.0000 C   0  0  0  0  0  0  0  0  0  0  0  0
   20.3107   -2.8019    0.0000 N   0  0  0  0  0  0  0  0  0  0  0  0
   21.6071   -3.5564    0.0000 C   0  0  0  0  0  0  0  0  0  0  0  0
   22.9087   -2.8110    0.0000 N   0  0  0  0  0  0  0  0  0  0  0  0
   21.6018   -5.0564    0.0000 N   0  0  0  0  0  0  0  0  0  0  0  0
   13.8129   -3.5290    0.0000 C   0  0  0  0  0  0  0  0  0  0  0  0
   14.1707   -4.9857    0.0000 O   0  0  0  0  0  0  0  0  0  0  0  0
   12.5165   -2.7745    0.0000 N   0  0  0  0  0  0  0  0  0  0  0  0
   11.2148   -3.5199    0.0000 C   0  0  0  0  0  0  0  0  0  0  0  0
   12.1750   -4.6723    0.0000 C   0  0  0  0  0  0  0  0  0  0  0  0
   13.6531   -4.4171    0.0000 C   0  0  0  0  0  0  0  0  0  0  0  0
   14.6132   -5.5695    0.0000 C   0  0  0  0  0  0  0  0  0  0  0  0
   16.0913   -5.3142    0.0000 N   0  0  0  0  0  0  0  0  0  0  0  0
   17.0515   -6.4667    0.0000 C   0  0  0  0  0  0  0  0  0  0  0  0
   18.5296   -6.2114    0.0000 N   0  0  0  0  0  0  0  0  0  0  0  0
   16.5335   -7.8744    0.0000 N   0  0  0  0  0  0  0  0  0  0  0  0
    9.7367   -3.7752    0.0000 C   0  0  0  0  0  0  0  0  0  0  0  0
    9.5748   -5.2664    0.0000 O   0  0  0  0  0  0  0  0  0  0  0  0
    8.7766   -2.6227    0.0000 N   0  0  0  0  0  0  0  0  0  0  0  0
    7.2985   -2.8780    0.0000 C   0  0  0  0  0  0  0  0  0  0  0  0
    7.8065   -4.2893    0.0000 C   0  0  0  0  0  0  0  0  0  0  0  0
    9.2828   -4.5550    0.0000 C   0  0  0  0  0  0  0  0  0  0  0  0
    9.7909   -5.9663    0.0000 C   0  0  0  0  0  0  0  0  0  0  0  0
   11.2672   -6.2320    0.0000 N   0  0  0  0  0  0  0  0  0  0  0  0
   11.7752   -7.6433    0.0000 C   0  0  0  0  0  0  0  0  0  0  0  0
   13.2515   -7.9090    0.0000 N   0  0  0  0  0  0  0  0  0  0  0  0
   10.8070   -8.7890    0.0000 N   0  0  0  0  0  0  0  0  0  0  0  0
    5.8222   -2.6123    0.0000 C   0  0  0  0  0  0  0  0  0  0  0  0
    5.1599   -3.9582    0.0000 O   0  0  0  0  0  0  0  0  0  0  0  0
    5.3141   -1.2010    0.0000 N   0  0  0  0  0  0  0  0  0  0  0  0
    3.8378   -0.9353    0.0000 C   0  0  0  0  0  0  0  0  0  0  0  0
    3.8325   -2.4353    0.0000 C   0  0  0  0  0  0  0  0  0  0  0  0
    5.1289   -3.1899    0.0000 C   0  0  0  0  0  0  0  0  0  0  0  0
    5.1237   -4.6899    0.0000 C   0  0  0  0  0  0  0  0  0  0  0  0
    6.4200   -5.4444    0.0000 N   0  0  0  0  0  0  0  0  0  0  0  0
    6.4148   -6.9444    0.0000 C   0  0  0  0  0  0  0  0  0  0  0  0
    7.7112   -7.6990    0.0000 N   0  0  0  0  0  0  0  0  0  0  0  0
    5.1131   -7.6899    0.0000 N   0  0  0  0  0  0  0  0  0  0  0  0
    2.5414   -0.1808    0.0000 C   0  0  0  0  0  0  0  0  0  0  0  0
    1.4588   -1.2190    0.0000 O   0  0  0  0  0  0  0  0  0  0  0  0
    2.5467    1.3192    0.0000 N   0  0  0  0  0  0  0  0  0  0  0  0
    1.2503    2.0738    0.0000 C   0  0  0  0  0  0  0  0  0  0  0  0
    1.1499    0.5771    0.0000 C   0  0  0  0  0  0  0  0  0  0  0  0
    0.7681   -0.8734    0.0000 C   0  0  0  0  0  0  0  0  0  0  0  0
    0.1186   -2.2256    0.0000 C   0  0  0  0  0  0  0  0  0  0  0  0
   -0.7750   -3.4303    0.0000 C   0  0  0  0  0  0  0  0  0  0  0  0
   -1.8804   -4.4442    0.0000 C   0  0  0  0  0  0  0  0  0  0  0  0
   -3.1578   -5.2306    0.0000 C   0  0  0  0  0  0  0  0  0  0  0  0
   -4.5609   -5.7610    0.0000 C   0  0  0  0  0  0  0  0  0  0  0  0
    2.5021    2.9003    0.0000 C   0  0  0  0  0  0  0  0  0  0  0  0
    1.0656    3.5624    0.0000 C   0  0  0  0  0  0  0  0  0  0  0  0
    2.4794    4.0638    0.0000 O   0  0  0  0  0  0  0  0  0  0  0  0
    0.6026    4.9891    0.0000 N   0  0  0  0  0  0  0  0  0  0  0  0
   -0.1221    6.3024    0.0000 C   0  0  0  0  0  0  0  0  0  0  0  0
    0.4841    7.6745    0.0000 C   0  0  0  0  0  0  0  0  0  0  0  0
    1.9755    7.8355    0.0000 C   0  0  0  0  0  0  0  0  0  0  0  0
    2.5817    9.2075    0.0000 C   0  0  0  0  0  0  0  0  0  0  0  0
    4.0730    9.3686    0.0000 N   0  0  0  0  0  0  0  0  0  0  0  0
    4.6793   10.7406    0.0000 C   0  0  0  0  0  0  0  0  0  0  0  0
    6.1706   10.9016    0.0000 N   0  0  0  0  0  0  0  0  0  0  0  0
    3.7942   11.9516    0.0000 N   0  0  0  0  0  0  0  0  0  0  0  0
   -1.0822    7.4549    0.0000 C   0  0  0  0  0  0  0  0  0  0  0  0
   -0.1640    8.6410    0.0000 O   0  0  0  0  0  0  0  0  0  0  0  0
   -2.2431    8.4048    0.0000 N   0  0  0  0  0  0  0  0  0  0  0  0
   -3.5628    9.1179    0.0000 C   0  0  0  0  0  0  0  0  0  0  0  0
   -3.7946   10.5998    0.0000 C   0  0  0  0  0  0  0  0  0  0  0  0
   -2.6270   11.5416    0.0000 C   0  0  0  0  0  0  0  0  0  0  0  0
   -2.8588   13.0236    0.0000 C   0  0  0  0  0  0  0  0  0  0  0  0
   -1.6913   13.9653    0.0000 N   0  0  0  0  0  0  0  0  0  0  0  0
   -4.2582   13.5638    0.0000 O   0  0  0  0  0  0  0  0  0  0  0  0
   -4.9936    9.5683    0.0000 C   0  0  0  0  0  0  0  0  0  0  0  0
   -4.8624   11.0625    0.0000 O   0  0  0  0  0  0  0  0  0  0  0  0
   -6.4837    9.7398    0.0000 N   0  0  0  0  0  0  0  0  0  0  0  0
   -7.9794    9.6262    0.0000 C   0  0  0  0  0  0  0  0  0  0  0  0
   -8.9756   10.7476    0.0000 C   0  0  0  0  0  0  0  0  0  0  0  0
   -8.5026   12.1710    0.0000 C   0  0  0  0  0  0  0  0  0  0  0  0
   -9.4988   13.2924    0.0000 C   0  0  0  0  0  0  0  0  0  0  0  0
   -9.0257   14.7159    0.0000 N   0  0  0  0  0  0  0  0  0  0  0  0
  -10.0219   15.8373    0.0000 C   0  0  0  0  0  0  0  0  0  0  0  0
   -9.5489   17.2607    0.0000 N   0  0  0  0  0  0  0  0  0  0  0  0
  -11.4912   15.5352    0.0000 N   0  0  0  0  0  0  0  0  0  0  0  0
   -9.4266    9.2315    0.0000 C   0  0  0  0  0  0  0  0  0  0  0  0
  -10.1240   10.5595    0.0000 O   0  0  0  0  0  0  0  0  0  0  0  0
  -10.7729    8.5702    0.0000 N   0  0  0  0  0  0  0  0  0  0  0  0
  -11.9697    7.6660    0.0000 C   0  0  0  0  0  0  0  0  0  0  0  0
  -13.4141    8.0707    0.0000 C   0  0  0  0  0  0  0  0  0  0  0  0
  -13.7857    9.5240    0.0000 C   0  0  0  0  0  0  0  0  0  0  0  0
  -15.2300    9.9288    0.0000 C   0  0  0  0  0  0  0  0  0  0  0  0
  -15.6017   11.3820    0.0000 N   0  0  0  0  0  0  0  0  0  0  0  0
  -17.0460   11.7868    0.0000 C   0  0  0  0  0  0  0  0  0  0  0  0
  -17.4176   13.2400    0.0000 N   0  0  0  0  0  0  0  0  0  0  0  0
  -18.1187   10.7384    0.0000 N   0  0  0  0  0  0  0  0  0  0  0  0
  -12.9738    6.5516    0.0000 C   0  0  0  0  0  0  0  0  0  0  0  0
  -14.2785    7.2917    0.0000 O   0  0  0  0  0  0  0  0  0  0  0  0
  -13.7488    5.2673    0.0000 N   0  0  0  0  0  0  0  0  0  0  0  0
  -14.2668    3.8596    0.0000 C   0  0  0  0  0  0  0  0  0  0  0  0
  -15.7007    3.4193    0.0000 C   0  0  0  0  0  0  0  0  0  0  0  0
  -16.7990    4.4409    0.0000 C   0  0  0  0  0  0  0  0  0  0  0  0
  -18.2329    4.0005    0.0000 C   0  0  0  0  0  0  0  0  0  0  0  0
  -19.3312    5.0222    0.0000 N   0  0  0  0  0  0  0  0  0  0  0  0
  -20.7652    4.5818    0.0000 C   0  0  0  0  0  0  0  0  0  0  0  0
  -21.8635    5.6035    0.0000 N   0  0  0  0  0  0  0  0  0  0  0  0
  -21.1008    3.1199    0.0000 N   0  0  0  0  0  0  0  0  0  0  0  0
  -14.5090    2.3793    0.0000 C   0  0  0  0  0  0  0  0  0  0  0  0
  -16.0067    2.2965    0.0000 O   0  0  0  0  0  0  0  0  0  0  0  0
  -14.4667    0.8799    0.0000 N   0  0  0  0  0  0  0  0  0  0  0  0
  -14.1414   -0.5844    0.0000 C   0  0  0  0  0  0  0  0  0  0  0  0
  -15.1096   -1.7301    0.0000 C   0  0  0  0  0  0  0  0  0  0  0  0
  -16.5859   -1.4644    0.0000 C   0  0  0  0  0  0  0  0  0  0  0  0
  -17.5541   -2.6101    0.0000 C   0  0  0  0  0  0  0  0  0  0  0  0
  -19.0304   -2.3444    0.0000 N   0  0  0  0  0  0  0  0  0  0  0  0
  -19.9986   -3.4901    0.0000 C   0  0  0  0  0  0  0  0  0  0  0  0
  -21.4749   -3.2244    0.0000 N   0  0  0  0  0  0  0  0  0  0  0  0
  -19.4905   -4.9014    0.0000 N   0  0  0  0  0  0  0  0  0  0  0  0
  -13.5448   -1.9607    0.0000 C   0  0  0  0  0  0  0  0  0  0  0  0
  -14.7600   -2.8401    0.0000 O   0  0  0  0  0  0  0  0  0  0  0  0
  -12.6986   -3.1992    0.0000 N   0  0  0  0  0  0  0  0  0  0  0  0
  -11.6333   -4.2552    0.0000 C   0  0  0  0  0  0  0  0  0  0  0  0
  -10.3873   -5.0904    0.0000 C   0  0  0  0  0  0  0  0  0  0  0  0
   -9.0058   -5.6748    0.0000 C   0  0  0  0  0  0  0  0  0  0  0  0
   -7.5387   -5.9872    0.0000 C   0  0  0  0  0  0  0  0  0  0  0  0
   -6.0390   -6.0162    0.0000 C   0  0  0  0  0  0  0  0  0  0  0  0
  -13.0525   -4.7408    0.0000 C   0  0  0  0  0  0  0  0  0  0  0  0
  -11.8284   -5.7424    0.0000 C   0  0  0  0  0  0  0  0  0  0  0  0
  -10.8941   -6.9159    0.0000 O   0  0  0  0  0  0  0  0  0  0  0  0
  -13.2139   -6.3171    0.0000 N   0  0  0  0  0  0  0  0  0  0  0  0
  -13.4091   -7.8043    0.0000 C   0  0  0  0  0  0  0  0  0  0  0  0
  -13.0837   -9.2686    0.0000 C   0  0  0  0  0  0  0  0  0  0  0  0
  -14.1892  -10.2825    0.0000 C   0  0  0  0  0  0  0  0  0  0  0  0
  -13.8639  -11.7468    0.0000 C   0  0  0  0  0  0  0  0  0  0  0  0
  -14.9693  -12.7607    0.0000 N   0  0  0  0  0  0  0  0  0  0  0  0
  -14.6440  -14.2250    0.0000 C   0  0  0  0  0  0  0  0  0  0  0  0
  -15.7495  -15.2389    0.0000 N   0  0  0  0  0  0  0  0  0  0  0  0
  -13.2132  -14.6754    0.0000 N   0  0  0  0  0  0  0  0  0  0  0  0
  -14.7946   -8.3790    0.0000 C   0  0  0  0  0  0  0  0  0  0  0  0
  -15.9851   -7.4664    0.0000 O   0  0  0  0  0  0  0  0  0  0  0  0
  -14.9897   -9.8662    0.0000 N   0  0  0  0  0  0  0  0  0  0  0  0
  -16.3753  -10.4409    0.0000 C   0  0  0  0  0  0  0  0  0  0  0  0
  -17.8738  -10.5070    0.0000 C   0  0  0  0  0  0  0  0  0  0  0  0
  -18.6804   -9.2422    0.0000 C   0  0  0  0  0  0  0  0  0  0  0  0
  -20.1789   -9.3084    0.0000 C   0  0  0  0  0  0  0  0  0  0  0  0
  -20.9854   -8.0436    0.0000 N   0  0  0  0  0  0  0  0  0  0  0  0
  -22.4840   -8.1097    0.0000 C   0  0  0  0  0  0  0  0  0  0  0  0
  -23.2905   -6.8450    0.0000 N   0  0  0  0  0  0  0  0  0  0  0  0
  -23.1760   -9.4406    0.0000 N   0  0  0  0  0  0  0  0  0  0  0  0
  -16.5704  -11.9281    0.0000 C   0  0  0  0  0  0  0  0  0  0  0  0
  -17.8756  -12.6674    0.0000 O   0  0  0  0  0  0  0  0  0  0  0  0
  -15.6362  -13.1017    0.0000 O   0  0  0  0  0  0  0  0  0  0  0  0
   22.7400    2.3410    0.0000 H   0  0  0  0  0  0  0  0  0  0  0  0
   24.4324   -1.8206    0.0000 H   0  0  0  0  0  0  0  0  0  0  0  0
   27.3850   -2.3519    0.0000 H   0  0  0  0  0  0  0  0  0  0  0  0
   25.0263    3.1285    0.0000 H   0  0  0  0  0  0  0  0  0  0  0  0
   30.9779    7.1151    0.0000 H   0  0  0  0  0  0  0  0  0  0  0  0
   33.7159    2.6988    0.0000 H   0  0  0  0  0  0  0  0  0  0  0  0
   31.1662    1.1180    0.0000 H   0  0  0  0  0  0  0  0  0  0  0  0
   34.9437    4.9885    0.0000 H   0  0  0  0  0  0  0  0  0  0  0  0
   25.9726    0.9550    0.0000 H   0  0  0  0  0  0  0  0  0  0  0  0
   23.2419    2.5340    0.0000 H   0  0  0  0  0  0  0  0  0  0  0  0
   25.7843    6.9520    0.0000 H   0  0  0  0  0  0  0  0  0  0  0  0
   23.1875    6.8705    0.0000 H   0  0  0  0  0  0  0  0  0  0  0  0
   20.4637    1.5334    0.0000 H   0  0  0  0  0  0  0  0  0  0  0  0
   21.3000   -1.7781    0.0000 H   0  0  0  0  0  0  0  0  0  0  0  0
   19.8416   -2.5148    0.0000 H   0  0  0  0  0  0  0  0  0  0  0  0
   19.0453    0.6498    0.0000 H   0  0  0  0  0  0  0  0  0  0  0  0
   17.2309   -0.0034    0.0000 H   0  0  0  0  0  0  0  0  0  0  0  0
   15.5747   -0.2266    0.0000 H   0  0  0  0  0  0  0  0  0  0  0  0
   14.1544   -1.6311    0.0000 H   0  0  0  0  0  0  0  0  0  0  0  0
   17.2234   -4.7991    0.0000 H   0  0  0  0  0  0  0  0  0  0  0  0
   15.7487   -4.8841    0.0000 H   0  0  0  0  0  0  0  0  0  0  0  0
   18.6808   -1.6471    0.0000 H   0  0  0  0  0  0  0  0  0  0  0  0
   17.0599   -1.4422    0.0000 H   0  0  0  0  0  0  0  0  0  0  0  0
   19.9691   -4.6997    0.0000 H   0  0  0  0  0  0  0  0  0  0  0  0
   18.1877   -4.8024    0.0000 H   0  0  0  0  0  0  0  0  0  0  0  0
   20.6788   -1.3477    0.0000 H   0  0  0  0  0  0  0  0  0  0  0  0
   24.2051   -3.5656    0.0000 H   0  0  0  0  0  0  0  0  0  0  0  0
   23.0968   -1.3228    0.0000 H   0  0  0  0  0  0  0  0  0  0  0  0
   22.8982   -5.8110    0.0000 H   0  0  0  0  0  0  0  0  0  0  0  0
   20.3001   -5.8018    0.0000 H   0  0  0  0  0  0  0  0  0  0  0  0
   12.5218   -1.2745    0.0000 H   0  0  0  0  0  0  0  0  0  0  0  0
   10.7068   -2.1086    0.0000 H   0  0  0  0  0  0  0  0  0  0  0  0
   12.5072   -6.1351    0.0000 H   0  0  0  0  0  0  0  0  0  0  0  0
   11.0924   -5.7106    0.0000 H   0  0  0  0  0  0  0  0  0  0  0  0
   14.9547   -3.6716    0.0000 H   0  0  0  0  0  0  0  0  0  0  0  0
   13.5016   -2.9247    0.0000 H   0  0  0  0  0  0  0  0  0  0  0  0
   15.1213   -6.9808    0.0000 H   0  0  0  0  0  0  0  0  0  0  0  0
   13.4121   -6.4681    0.0000 H   0  0  0  0  0  0  0  0  0  0  0  0
   16.9346   -4.0737    0.0000 H   0  0  0  0  0  0  0  0  0  0  0  0
   19.4897   -7.3639    0.0000 H   0  0  0  0  0  0  0  0  0  0  0  0
   19.0476   -4.8037    0.0000 H   0  0  0  0  0  0  0  0  0  0  0  0
   17.4936   -9.0269    0.0000 H   0  0  0  0  0  0  0  0  0  0  0  0
   15.0554   -8.1297    0.0000 H   0  0  0  0  0  0  0  0  0  0  0  0
    9.2946   -1.2150    0.0000 H   0  0  0  0  0  0  0  0  0  0  0  0
    7.3037   -1.3780    0.0000 H   0  0  0  0  0  0  0  0  0  0  0  0
    7.6184   -5.7775    0.0000 H   0  0  0  0  0  0  0  0  0  0  0  0
    6.4341   -4.8947    0.0000 H   0  0  0  0  0  0  0  0  0  0  0  0
   10.7609   -4.2997    0.0000 H   0  0  0  0  0  0  0  0  0  0  0  0
    9.6509   -3.1009    0.0000 H   0  0  0  0  0  0  0  0  0  0  0  0
    9.7856   -7.4663    0.0000 H   0  0  0  0  0  0  0  0  0  0  0  0
    8.3549   -6.3999    0.0000 H   0  0  0  0  0  0  0  0  0  0  0  0
   12.4838   -5.3547    0.0000 H   0  0  0  0  0  0  0  0  0  0  0  0
   13.7596   -9.3203    0.0000 H   0  0  0  0  0  0  0  0  0  0  0  0
   14.2197   -6.7633    0.0000 H   0  0  0  0  0  0  0  0  0  0  0  0
   11.3151  -10.2003    0.0000 H   0  0  0  0  0  0  0  0  0  0  0  0
    9.3307   -8.5233    0.0000 H   0  0  0  0  0  0  0  0  0  0  0  0
    6.2823   -0.0553    0.0000 H   0  0  0  0  0  0  0  0  0  0  0  0
    4.3558    0.4724    0.0000 H   0  0  0  0  0  0  0  0  0  0  0  0
    3.1468   -3.7694    0.0000 H   0  0  0  0  0  0  0  0  0  0  0  0
    2.3563   -2.1697    0.0000 H   0  0  0  0  0  0  0  0  0  0  0  0
    6.6052   -3.4555    0.0000 H   0  0  0  0  0  0  0  0  0  0  0  0
    5.9722   -1.9493    0.0000 H   0  0  0  0  0  0  0  0  0  0  0  0
    4.6057   -6.0976    0.0000 H   0  0  0  0  0  0  0  0  0  0  0  0
    3.6260   -4.6061    0.0000 H   0  0  0  0  0  0  0  0  0  0  0  0
    7.8634   -5.0361    0.0000 H   0  0  0  0  0  0  0  0  0  0  0  0
    7.7059   -9.1990    0.0000 H   0  0  0  0  0  0  0  0  0  0  0  0
    9.0128   -6.9536    0.0000 H   0  0  0  0  0  0  0  0  0  0  0  0
    5.1078   -9.1898    0.0000 H   0  0  0  0  0  0  0  0  0  0  0  0
    3.8167   -6.9353    0.0000 H   0  0  0  0  0  0  0  0  0  0  0  0
    3.9295    1.9004    0.0000 H   0  0  0  0  0  0  0  0  0  0  0  0
    2.6333    0.7995    0.0000 H   0  0  0  0  0  0  0  0  0  0  0  0
    2.1514   -0.5395    0.0000 H   0  0  0  0  0  0  0  0  0  0  0  0
    2.2480   -1.1181    0.0000 H   0  0  0  0  0  0  0  0  0  0  0  0
    1.6912   -2.0558    0.0000 H   0  0  0  0  0  0  0  0  0  0  0  0
    1.6185   -2.2070    0.0000 H   0  0  0  0  0  0  0  0  0  0  0  0
    0.9590   -3.4680    0.0000 H   0  0  0  0  0  0  0  0  0  0  0  0
    0.6579   -3.8740    0.0000 H   0  0  0  0  0  0  0  0  0  0  0  0
   -0.1849   -4.8094    0.0000 H   0  0  0  0  0  0  0  0  0  0  0  0
   -0.5574   -5.1510    0.0000 H   0  0  0  0  0  0  0  0  0  0  0  0
   -1.5621   -5.9100    0.0000 H   0  0  0  0  0  0  0  0  0  0  0  0
   -1.9924   -6.1750    0.0000 H   0  0  0  0  0  0  0  0  0  0  0  0
   -3.3056   -6.7233    0.0000 H   0  0  0  0  0  0  0  0  0  0  0  0
   -4.1663   -7.2081    0.0000 H   0  0  0  0  0  0  0  0  0  0  0  0
    3.9155    2.3980    0.0000 H   0  0  0  0  0  0  0  0  0  0  0  0
    3.5359    3.9871    0.0000 H   0  0  0  0  0  0  0  0  0  0  0  0
    1.7650    4.2067    0.0000 H   0  0  0  0  0  0  0  0  0  0  0  0
    2.0413    5.4135    0.0000 H   0  0  0  0  0  0  0  0  0  0  0  0
    1.3733    6.1854    0.0000 H   0  0  0  0  0  0  0  0  0  0  0  0
    0.5845    9.1711    0.0000 H   0  0  0  0  0  0  0  0  0  0  0  0
   -0.8422    8.3750    0.0000 H   0  0  0  0  0  0  0  0  0  0  0  0
    3.4319    7.4767    0.0000 H   0  0  0  0  0  0  0  0  0  0  0  0
    2.2402    6.3590    0.0000 H   0  0  0  0  0  0  0  0  0  0  0  0
    2.6821   10.7042    0.0000 H   0  0  0  0  0  0  0  0  0  0  0  0
    1.1798    9.7412    0.0000 H   0  0  0  0  0  0  0  0  0  0  0  0
    4.9581    8.1575    0.0000 H   0  0  0  0  0  0  0  0  0  0  0  0
    6.7768   12.2737    0.0000 H   0  0  0  0  0  0  0  0  0  0  0  0
    7.0557    9.6906    0.0000 H   0  0  0  0  0  0  0  0  0  0  0  0
    4.4004   13.3237    0.0000 H   0  0  0  0  0  0  0  0  0  0  0  0
    2.3028   11.7906    0.0000 H   0  0  0  0  0  0  0  0  0  0  0  0
   -1.2622    9.5396    0.0000 H   0  0  0  0  0  0  0  0  0  0  0  0
   -2.2415    9.8279    0.0000 H   0  0  0  0  0  0  0  0  0  0  0  0
   -4.3538   11.9917    0.0000 H   0  0  0  0  0  0  0  0  0  0  0  0
   -5.2891   10.4721    0.0000 H   0  0  0  0  0  0  0  0  0  0  0  0
   -1.2078   12.0272    0.0000 H   0  0  0  0  0  0  0  0  0  0  0  0
   -1.6061   10.4426    0.0000 H   0  0  0  0  0  0  0  0  0  0  0  0
   -1.9231   15.4473    0.0000 H   0  0  0  0  0  0  0  0  0  0  0  0
   -0.2920   13.4250    0.0000 H   0  0  0  0  0  0  0  0  0  0  0  0
   -6.2721   11.2248    0.0000 H   0  0  0  0  0  0  0  0  0  0  0  0
   -7.2517   10.9378    0.0000 H   0  0  0  0  0  0  0  0  0  0  0  0
  -10.2953   11.4606    0.0000 H   0  0  0  0  0  0  0  0  0  0  0  0
  -10.1638    9.8321    0.0000 H   0  0  0  0  0  0  0  0  0  0  0  0
   -7.5712   13.3468    0.0000 H   0  0  0  0  0  0  0  0  0  0  0  0
   -7.0496   11.7985    0.0000 H   0  0  0  0  0  0  0  0  0  0  0  0
  -10.8185   14.0055    0.0000 H   0  0  0  0  0  0  0  0  0  0  0  0
  -10.5665   12.2389    0.0000 H   0  0  0  0  0  0  0  0  0  0  0  0
   -7.5565   15.0179    0.0000 H   0  0  0  0  0  0  0  0  0  0  0  0
  -10.5451   18.3821    0.0000 H   0  0  0  0  0  0  0  0  0  0  0  0
   -8.0796   17.5628    0.0000 H   0  0  0  0  0  0  0  0  0  0  0  0
  -12.4874   16.6566    0.0000 H   0  0  0  0  0  0  0  0  0  0  0  0
  -11.9643   14.1118    0.0000 H   0  0  0  0  0  0  0  0  0  0  0  0
  -11.3977    9.9339    0.0000 H   0  0  0  0  0  0  0  0  0  0  0  0
  -12.0667    9.1628    0.0000 H   0  0  0  0  0  0  0  0  0  0  0  0
  -14.9098    7.9571    0.0000 H   0  0  0  0  0  0  0  0  0  0  0  0
  -13.9187    6.6582    0.0000 H   0  0  0  0  0  0  0  0  0  0  0  0
  -13.6379   11.0167    0.0000 H   0  0  0  0  0  0  0  0  0  0  0  0
  -12.3619    9.9961    0.0000 H   0  0  0  0  0  0  0  0  0  0  0  0
  -16.7257    9.8152    0.0000 H   0  0  0  0  0  0  0  0  0  0  0  0
  -15.5587    8.4652    0.0000 H   0  0  0  0  0  0  0  0  0  0  0  0
  -14.5289   12.4305    0.0000 H   0  0  0  0  0  0  0  0  0  0  0  0
  -18.8620   13.6448    0.0000 H   0  0  0  0  0  0  0  0  0  0  0  0
  -16.3449   14.2885    0.0000 H   0  0  0  0  0  0  0  0  0  0  0  0
  -19.5631   11.1431    0.0000 H   0  0  0  0  0  0  0  0  0  0  0  0
  -17.7471    9.2851    0.0000 H   0  0  0  0  0  0  0  0  0  0  0  0
  -15.0117    6.0767    0.0000 H   0  0  0  0  0  0  0  0  0  0  0  0
  -15.1577    5.0664    0.0000 H   0  0  0  0  0  0  0  0  0  0  0  0
  -16.8976    2.5150    0.0000 H   0  0  0  0  0  0  0  0  0  0  0  0
  -15.3616    1.9581    0.0000 H   0  0  0  0  0  0  0  0  0  0  0  0
  -17.4817    5.7765    0.0000 H   0  0  0  0  0  0  0  0  0  0  0  0
  -15.8566    5.6078    0.0000 H   0  0  0  0  0  0  0  0  0  0  0  0
  -19.4298    3.0963    0.0000 H   0  0  0  0  0  0  0  0  0  0  0  0
  -17.7182    2.5916    0.0000 H   0  0  0  0  0  0  0  0  0  0  0  0
  -18.9956    6.4841    0.0000 H   0  0  0  0  0  0  0  0  0  0  0  0
  -23.2974    5.1631    0.0000 H   0  0  0  0  0  0  0  0  0  0  0  0
  -21.5279    7.0654    0.0000 H   0  0  0  0  0  0  0  0  0  0  0  0
  -22.5347    2.6795    0.0000 H   0  0  0  0  0  0  0  0  0  0  0  0
  -20.0025    2.0982    0.0000 H   0  0  0  0  0  0  0  0  0  0  0  0
  -15.9667    0.8781    0.0000 H   0  0  0  0  0  0  0  0  0  0  0  0
  -15.5433   -0.0508    0.0000 H   0  0  0  0  0  0  0  0  0  0  0  0
  -15.6276   -3.1378    0.0000 H   0  0  0  0  0  0  0  0  0  0  0  0
  -14.0343   -2.7759    0.0000 H   0  0  0  0  0  0  0  0  0  0  0  0
  -17.8823   -0.7099    0.0000 H   0  0  0  0  0  0  0  0  0  0  0  0
  -16.4239    0.0268    0.0000 H   0  0  0  0  0  0  0  0  0  0  0  0
  -18.0721   -4.0178    0.0000 H   0  0  0  0  0  0  0  0  0  0  0  0
  -16.3594   -3.5171    0.0000 H   0  0  0  0  0  0  0  0  0  0  0  0
  -19.5385   -0.9331    0.0000 H   0  0  0  0  0  0  0  0  0  0  0  0
  -22.4431   -4.3701    0.0000 H   0  0  0  0  0  0  0  0  0  0  0  0
  -21.9830   -1.8131    0.0000 H   0  0  0  0  0  0  0  0  0  0  0  0
  -20.3119   -6.1566    0.0000 H   0  0  0  0  0  0  0  0  0  0  0  0
  -18.0143   -5.1671    0.0000 H   0  0  0  0  0  0  0  0  0  0  0  0
  -13.9595   -4.0117    0.0000 H   0  0  0  0  0  0  0  0  0  0  0  0
  -10.2975   -6.5877    0.0000 H   0  0  0  0  0  0  0  0  0  0  0  0
  -11.4699   -6.1287    0.0000 H   0  0  0  0  0  0  0  0  0  0  0  0
   -8.8141   -7.1625    0.0000 H   0  0  0  0  0  0  0  0  0  0  0  0
   -9.8724   -6.8992    0.0000 H   0  0  0  0  0  0  0  0  0  0  0  0
   -6.8988   -7.3438    0.0000 H   0  0  0  0  0  0  0  0  0  0  0  0
   -8.3198   -7.2677    0.0000 H   0  0  0  0  0  0  0  0  0  0  0  0
   -5.9254   -7.5119    0.0000 H   0  0  0  0  0  0  0  0  0  0  0  0
  -13.6891   -6.0990    0.0000 H   0  0  0  0  0  0  0  0  0  0  0  0
  -14.5522   -4.7117    0.0000 H   0  0  0  0  0  0  0  0  0  0  0  0
  -13.6360   -3.3589    0.0000 H   0  0  0  0  0  0  0  0  0  0  0  0
  -14.5067   -5.5564    0.0000 H   0  0  0  0  0  0  0  0  0  0  0  0
  -11.9105   -7.7382    0.0000 H   0  0  0  0  0  0  0  0  0  0  0  0
  -12.1291  -10.4256    0.0000 H   0  0  0  0  0  0  0  0  0  0  0  0
  -11.6982   -8.6940    0.0000 H   0  0  0  0  0  0  0  0  0  0  0  0
  -15.5748  -10.8571    0.0000 H   0  0  0  0  0  0  0  0  0  0  0  0
  -15.4951   -9.5446    0.0000 H   0  0  0  0  0  0  0  0  0  0  0  0
  -13.0574  -13.0115    0.0000 H   0  0  0  0  0  0  0  0  0  0  0  0
  -12.4186  -11.3453    0.0000 H   0  0  0  0  0  0  0  0  0  0  0  0
  -16.4666  -12.6699    0.0000 H   0  0  0  0  0  0  0  0  0  0  0  0
  -15.4242  -16.7032    0.0000 H   0  0  0  0  0  0  0  0  0  0  0  0
  -17.1803  -14.7884    0.0000 H   0  0  0  0  0  0  0  0  0  0  0  0
  -12.8879  -16.1397    0.0000 H   0  0  0  0  0  0  0  0  0  0  0  0
  -12.1078  -13.6615    0.0000 H   0  0  0  0  0  0  0  0  0  0  0  0
  -14.0555  -11.0398    0.0000 H   0  0  0  0  0  0  0  0  0  0  0  0
  -16.5197   -8.9478    0.0000 H   0  0  0  0  0  0  0  0  0  0  0  0
  -19.1790  -11.2462    0.0000 H   0  0  0  0  0  0  0  0  0  0  0  0
  -17.7294  -12.0000    0.0000 H   0  0  0  0  0  0  0  0  0  0  0  0
  -19.0057   -7.7780    0.0000 H   0  0  0  0  0  0  0  0  0  0  0  0
  -17.3752   -8.5030    0.0000 H   0  0  0  0  0  0  0  0  0  0  0  0
  -21.5645   -9.8830    0.0000 H   0  0  0  0  0  0  0  0  0  0  0  0
  -20.0345  -10.8014    0.0000 H   0  0  0  0  0  0  0  0  0  0  0  0
  -20.1363   -6.8071    0.0000 H   0  0  0  0  0  0  0  0  0  0  0  0
  -24.7890   -6.9111    0.0000 H   0  0  0  0  0  0  0  0  0  0  0  0
  -22.5985   -5.5142    0.0000 H   0  0  0  0  0  0  0  0  0  0  0  0
  -24.6745   -9.5067    0.0000 H   0  0  0  0  0  0  0  0  0  0  0  0
  -22.3695  -10.7053    0.0000 H   0  0  0  0  0  0  0  0  0  0  0  0
  1  2  1  0
  2  3  1  0
  3  4  2  0
  4  5  1  0
  5  6  2  0
  6  7  1  0
  7  8  2  0
  7  9  1  0
  9 10  1  0
 10 11  1  0
 11 12  2  0
  9 13  1  0
 13 14  1  0
 14 15  2  0
 15 16  1  0
 16 17  2  0
 17 18  1  0
 16 19  1  0
 14 20  1  0
 20 21  1  0
 21 22  2  0
 22 23  1  0
 23 24  2  0
 24 25  1  0
 25 26  2  0
 25 27  1  0
  1 28  2  0
  1 29  1  0
 29 30  1  0
 30 31  1  0
 31 32  1  0
 32 33  2  0
 32 34  1  0
 34 35  1  0
 35 36  1  0
 36 37  1  0
 37 38  1  0
 38 39  1  0
 39 40  1  0
 40 41  2  3
 40 42  1  0
 35 43  1  0
 43 44  2  0
 43 45  1  0
 45 46  1  0
 46 47  1  0
 47 48  1  0
 48 49  1  0
 49 50  1  0
 50 51  1  0
 51 52  2  3
 51 53  1  0
 46 54  1  0
 54 55  2  0
 54 56  1  0
 56 57  1  0
 57 58  1  0
 58 59  1  0
 59 60  1  0
 60 61  1  0
 61 62  1  0
 62 63  2  3
 62 64  1  0
 57 65  1  0
 65 66  2  0
 65 67  1  0
 67 68  1  0
 68 69  1  0
 69 70  1  0
 70 71  1  0
 71 72  1  0
 72 73  1  0
 73 74  2  3
 73 75  1  0
 68 76  1  0
 76 77  2  0
 76 78  1  0
 79 78  1  6
 79 80  1  0
 80 81  1  0
 81 82  1  0
 82 83  1  0
 83 84  1  0
 84 85  1  0
 85 86  1  0
 79 87  1  0
 79 88  1  0
 88 89  2  0
 88 90  1  0
 90 91  1  0
 91 92  1  0
 92 93  1  0
 93 94  1  0
 94 95  1  0
 95 96  1  0
 96 97  2  3
 96 98  1  0
 91 99  1  0
 99100  2  0
 99101  1  0
101102  1  0
102103  1  0
103104  1  0
104105  1  0
105106  1  0
105107  2  0
102108  1  0
108109  2  0
108110  1  0
110111  1  0
111112  1  0
112113  1  0
113114  1  0
114115  1  0
115116  1  0
116117  2  3
116118  1  0
111119  1  0
119120  2  0
119121  1  0
121122  1  0
122123  1  0
123124  1  0
124125  1  0
125126  1  0
126127  1  0
127128  2  3
127129  1  0
122130  1  0
130131  2  0
130132  1  0
132133  1  0
133134  1  0
134135  1  0
135136  1  0
136137  1  0
137138  1  0
138139  2  3
138140  1  0
133141  1  0
141142  2  0
141143  1  0
143144  1  0
144145  1  0
145146  1  0
146147  1  0
147148  1  0
148149  1  0
149150  2  3
149151  1  0
144152  1  0
152153  2  0
152154  1  0
154155  1  0
155156  1  0
156157  1  0
157158  1  0
158159  1  0
155160  1  0
155161  1  1
161162  2  0
161163  1  0
163164  1  0
164165  1  0
165166  1  0
166167  1  0
167168  1  0
168169  1  0
169170  2  3
169171  1  0
164172  1  0
172173  2  0
172174  1  0
174175  1  0
175176  1  0
176177  1  0
177178  1  0
178179  1  0
179180  1  0
180181  2  3
180182  1  0
175183  1  0
183184  2  0
183185  1  0
  8  3  1  0
 11  6  1  0
 86159  2  0
 18 13  2  0
 22  9  1  0
 26 21  1  0
  2186  1  0
  4187  1  0
  5188  1  0
  8189  1  0
 15190  1  0
 17191  1  0
 18192  1  0
 19193  1  0
 23194  1  0
 24195  1  0
 26196  1  0
 27197  1  0
 29198  1  0
 30199  1  0
 30200  1  0
 31201  1  0
 31202  1  0
 34203  1  0
 35204  1  1
 36205  1  0
 36206  1  0
 37207  1  0
 37208  1  0
 38209  1  0
 38210  1  0
 39211  1  0
 41212  1  0
 41213  1  0
 42214  1  0
 42215  1  0
 45216  1  0
 46217  1  1
 47218  1  0
 47219  1  0
 48220  1  0
 48221  1  0
 49222  1  0
 49223  1  0
 50224  1  0
 52225  1  0
 52226  1  0
 53227  1  0
 53228  1  0
 56229  1  0
 57230  1  1
 58231  1  0
 58232  1  0
 59233  1  0
 59234  1  0
 60235  1  0
 60236  1  0
 61237  1  0
 63238  1  0
 63239  1  0
 64240  1  0
 64241  1  0
 67242  1  0
 68243  1  1
 69244  1  0
 69245  1  0
 70246  1  0
 70247  1  0
 71248  1  0
 71249  1  0
 72250  1  0
 74251  1  0
 74252  1  0
 75253  1  0
 75254  1  0
 78255  1  0
 80256  1  0
 80257  1  0
 81258  1  0
 81259  1  0
 82260  1  0
 82261  1  0
 83262  1  0
 83263  1  0
 84264  1  0
 84265  1  0
 85266  1  0
 85267  1  0
 86268  1  0
 87269  1  0
 87270  1  0
 87271  1  0
 90272  1  0
 91273  1  6
 92274  1  0
 92275  1  0
 93276  1  0
 93277  1  0
 94278  1  0
 94279  1  0
 95280  1  0
 97281  1  0
 97282  1  0
 98283  1  0
 98284  1  0
101285  1  0
102286  1  6
103287  1  0
103288  1  0
104289  1  0
104290  1  0
106291  1  0
106292  1  0
110293  1  0
111294  1  6
112295  1  0
112296  1  0
113297  1  0
113298  1  0
114299  1  0
114300  1  0
115301  1  0
117302  1  0
117303  1  0
118304  1  0
118305  1  0
121306  1  0
122307  1  6
123308  1  0
123309  1  0
124310  1  0
124311  1  0
125312  1  0
125313  1  0
126314  1  0
128315  1  0
128316  1  0
129317  1  0
129318  1  0
132319  1  0
133320  1  6
134321  1  0
134322  1  0
135323  1  0
135324  1  0
136325  1  0
136326  1  0
137327  1  0
139328  1  0
139329  1  0
140330  1  0
140331  1  0
143332  1  0
144333  1  6
145334  1  0
145335  1  0
146336  1  0
146337  1  0
147338  1  0
147339  1  0
148340  1  0
150341  1  0
150342  1  0
151343  1  0
151344  1  0
154345  1  0
156346  1  0
156347  1  0
157348  1  0
157349  1  0
158350  1  0
158351  1  0
159352  1  0
160353  1  0
160354  1  0
160355  1  0
163356  1  0
164357  1  1
165358  1  0
165359  1  0
166360  1  0
166361  1  0
167362  1  0
167363  1  0
168364  1  0
170365  1  0
170366  1  0
171367  1  0
171368  1  0
174369  1  0
175370  1  6
176371  1  0
176372  1  0
177373  1  0
177374  1  0
178375  1  0
178376  1  0
179377  1  0
181378  1  0
181379  1  0
182380  1  0
182381  1  0
M  CHG  8  41   1  52   1  63   1  74   1  97   1 117   1 128   1 139   1
M  CHG  4 150   1 170   1 181   1 185  -1
M  END
