
     RDKit          2D

295304  0  0  0  0  0  0  0  0999 V2000
  -18.5808   -6.8210    0.0000 C   0  0  0  0  0  0  0  0  0  0  0  0
  -18.3366   -8.3010    0.0000 N   0  0  0  0  0  0  0  0  0  0  0  0
  -19.4963   -9.2525    0.0000 C   0  0  0  0  0  0  0  0  0  0  0  0
  -20.9001   -8.7239    0.0000 C   0  0  0  0  0  0  0  0  0  0  0  0
  -22.0597   -9.6754    0.0000 C   0  0  0  0  0  0  0  0  0  0  0  0
  -21.8155  -11.1554    0.0000 C   0  0  0  0  0  0  0  0  0  0  0  0
  -20.4117  -11.6839    0.0000 C   0  0  0  0  0  0  0  0  0  0  0  0
  -19.2521  -10.7324    0.0000 C   0  0  0  0  0  0  0  0  0  0  0  0
  -20.4805  -13.1823    0.0000 C   0  0  0  0  0  0  0  0  0  0  0  0
  -21.9269  -13.5799    0.0000 O   0  0  0  0  0  0  0  0  0  0  0  0
  -22.7519  -12.3272    0.0000 C   0  0  0  0  0  0  0  0  0  0  0  0
  -24.2504  -12.2583    0.0000 O   0  0  0  0  0  0  0  0  0  0  0  0
  -20.7056  -14.6653    0.0000 C   0  0  0  0  0  0  0  0  0  0  0  0
  -19.5339  -15.6018    0.0000 C   0  0  0  0  0  0  0  0  0  0  0  0
  -19.7590  -17.0848    0.0000 C   0  0  0  0  0  0  0  0  0  0  0  0
  -21.1558  -17.6314    0.0000 C   0  0  0  0  0  0  0  0  0  0  0  0
  -22.3276  -16.6949    0.0000 C   0  0  0  0  0  0  0  0  0  0  0  0
  -22.1025  -15.2119    0.0000 C   0  0  0  0  0  0  0  0  0  0  0  0
  -21.3809  -19.1144    0.0000 O   0  0  0  0  0  0  0  0  0  0  0  0
  -18.1370  -15.0552    0.0000 O   0  0  0  0  0  0  0  0  0  0  0  0
  -17.9119  -13.5722    0.0000 C   0  0  0  0  0  0  0  0  0  0  0  0
  -19.0837  -12.6358    0.0000 C   0  0  0  0  0  0  0  0  0  0  0  0
  -18.3117  -11.5898    0.0000 C   0  0  0  0  0  0  0  0  0  0  0  0
  -17.5667  -11.2983    0.0000 C   0  0  0  0  0  0  0  0  0  0  0  0
  -16.9418  -11.7977    0.0000 C   0  0  0  0  0  0  0  0  0  0  0  0
  -17.0618  -12.5887    0.0000 C   0  0  0  0  0  0  0  0  0  0  0  0
  -14.8930  -10.9961    0.0000 O   0  0  0  0  0  0  0  0  0  0  0  0
  -19.9846   -6.2925    0.0000 S   0  0  0  0  0  0  0  0  0  0  0  0
  -17.4212   -5.8695    0.0000 N   0  0  0  0  0  0  0  0  0  0  0  0
  -17.6654   -4.3895    0.0000 C   0  0  0  0  0  0  0  0  0  0  0  0
  -16.5058   -3.4381    0.0000 C   0  0  0  0  0  0  0  0  0  0  0  0
  -16.7500   -1.9581    0.0000 C   0  0  0  0  0  0  0  0  0  0  0  0
  -18.1538   -1.4296    0.0000 O   0  0  0  0  0  0  0  0  0  0  0  0
  -15.5904   -1.0066    0.0000 N   0  0  0  0  0  0  0  0  0  0  0  0
  -15.8346    0.4734    0.0000 C   0  0  0  0  0  0  0  0  0  0  0  0
  -16.5702    1.7806    0.0000 C   0  0  0  0  0  0  0  0  0  0  0  0
  -15.8059    3.0713    0.0000 C   0  0  0  0  0  0  0  0  0  0  0  0
  -14.3125    3.2117    0.0000 C   0  0  0  0  0  0  0  0  0  0  0  0
  -13.9845    4.6754    0.0000 N   0  0  0  0  0  0  0  0  0  0  0  0
  -15.2752    5.4396    0.0000 C   0  0  0  0  0  0  0  0  0  0  0  0
  -15.5709    6.9102    0.0000 C   0  0  0  0  0  0  0  0  0  0  0  0
  -16.9923    7.3894    0.0000 C   0  0  0  0  0  0  0  0  0  0  0  0
  -18.1180    6.3980    0.0000 C   0  0  0  0  0  0  0  0  0  0  0  0
  -17.8223    4.9275    0.0000 C   0  0  0  0  0  0  0  0  0  0  0  0
  -16.4009    4.4483    0.0000 C   0  0  0  0  0  0  0  0  0  0  0  0
  -14.6749    1.4249    0.0000 C   0  0  0  0  0  0  0  0  0  0  0  0
  -13.2711    0.8963    0.0000 O   0  0  0  0  0  0  0  0  0  0  0  0
  -14.9191    2.9048    0.0000 N   0  0  0  0  0  0  0  0  0  0  0  0
  -16.2600    3.5772    0.0000 C   0  0  0  0  0  0  0  0  0  0  0  0
  -16.0349    5.0602    0.0000 C   0  0  0  0  0  0  0  0  0  0  0  0
  -14.5549    5.3044    0.0000 C   0  0  0  0  0  0  0  0  0  0  0  0
  -13.8653    3.9723    0.0000 C   0  0  0  0  0  0  0  0  0  0  0  0
  -12.6126    4.7974    0.0000 C   0  0  0  0  0  0  0  0  0  0  0  0
  -12.5176    6.2943    0.0000 O   0  0  0  0  0  0  0  0  0  0  0  0
  -11.2717    4.1250    0.0000 N   0  0  0  0  0  0  0  0  0  0  0  0
  -10.0190    4.9500    0.0000 C   0  0  0  0  0  0  0  0  0  0  0  0
   -9.1240    6.1538    0.0000 C   0  0  0  0  0  0  0  0  0  0  0  0
   -7.6341    5.9806    0.0000 C   0  0  0  0  0  0  0  0  0  0  0  0
   -6.7391    7.1843    0.0000 C   0  0  0  0  0  0  0  0  0  0  0  0
   -5.2515    7.3768    0.0000 O   0  0  0  0  0  0  0  0  0  0  0  0
   -7.6496    8.3764    0.0000 O   0  0  0  0  0  0  0  0  0  0  0  0
   -8.6782    4.2777    0.0000 C   0  0  0  0  0  0  0  0  0  0  0  0
   -8.7732    2.7807    0.0000 O   0  0  0  0  0  0  0  0  0  0  0  0
   -7.4254    5.1027    0.0000 N   0  0  0  0  0  0  0  0  0  0  0  0
   -6.0846    4.4304    0.0000 C   0  0  0  0  0  0  0  0  0  0  0  0
   -5.7015    2.9801    0.0000 C   0  0  0  0  0  0  0  0  0  0  0  0
   -4.9079    1.7072    0.0000 C   0  0  0  0  0  0  0  0  0  0  0  0
   -3.7744    0.7248    0.0000 C   0  0  0  0  0  0  0  0  0  0  0  0
   -2.4017    0.1201    0.0000 C   0  0  0  0  0  0  0  0  0  0  0  0
   -7.3555    3.6337    0.0000 C   0  0  0  0  0  0  0  0  0  0  0  0
   -6.0232    5.9291    0.0000 C   0  0  0  0  0  0  0  0  0  0  0  0
   -7.2963    6.7222    0.0000 O   0  0  0  0  0  0  0  0  0  0  0  0
   -5.5228    7.3432    0.0000 N   0  0  0  0  0  0  0  0  0  0  0  0
   -4.6278    8.5469    0.0000 C   0  0  0  0  0  0  0  0  0  0  0  0
   -4.9381   10.0145    0.0000 C   0  0  0  0  0  0  0  0  0  0  0  0
   -6.4103   10.3022    0.0000 C   0  0  0  0  0  0  0  0  0  0  0  0
   -4.7278   11.4996    0.0000 C   0  0  0  0  0  0  0  0  0  0  0  0
   -5.9089   12.4244    0.0000 C   0  0  0  0  0  0  0  0  0  0  0  0
   -3.4177    9.4334    0.0000 C   0  0  0  0  0  0  0  0  0  0  0  0
   -3.9468   10.8370    0.0000 O   0  0  0  0  0  0  0  0  0  0  0  0
   -2.0002    9.9238    0.0000 N   0  0  0  0  0  0  0  0  0  0  0  0
   -0.5010    9.9746    0.0000 C   0  0  0  0  0  0  0  0  0  0  0  0
    0.4528   11.1322    0.0000 C   0  0  0  0  0  0  0  0  0  0  0  0
   -0.0728   12.5371    0.0000 C   0  0  0  0  0  0  0  0  0  0  0  0
    0.8811   13.6948    0.0000 C   0  0  0  0  0  0  0  0  0  0  0  0
   -1.0472   13.6775    0.0000 C   0  0  0  0  0  0  0  0  0  0  0  0
    0.9465    9.5812    0.0000 C   0  0  0  0  0  0  0  0  0  0  0  0
    1.5512   10.9540    0.0000 O   0  0  0  0  0  0  0  0  0  0  0  0
    2.2137    8.7787    0.0000 N   0  0  0  0  0  0  0  0  0  0  0  0
    3.1881    7.6383    0.0000 C   0  0  0  0  0  0  0  0  0  0  0  0
    4.6879    7.6143    0.0000 C   0  0  0  0  0  0  0  0  0  0  0  0
    5.4586    8.9012    0.0000 C   0  0  0  0  0  0  0  0  0  0  0  0
    6.9584    8.8772    0.0000 O   0  0  0  0  0  0  0  0  0  0  0  0
    4.7295   10.2120    0.0000 O   0  0  0  0  0  0  0  0  0  0  0  0
    3.7831    6.2613    0.0000 C   0  0  0  0  0  0  0  0  0  0  0  0
    5.2334    6.6445    0.0000 O   0  0  0  0  0  0  0  0  0  0  0  0
    3.9458    4.7702    0.0000 N   0  0  0  0  0  0  0  0  0  0  0  0
    3.6617    3.2973    0.0000 C   0  0  0  0  0  0  0  0  0  0  0  0
    2.9561    1.9737    0.0000 C   0  0  0  0  0  0  0  0  0  0  0  0
    1.8917    0.9167    0.0000 C   0  0  0  0  0  0  0  0  0  0  0  0
    0.5631    0.2205    0.0000 C   0  0  0  0  0  0  0  0  0  0  0  0
   -0.9117   -0.0531    0.0000 C   0  0  0  0  0  0  0  0  0  0  0  0
    5.1211    3.6442    0.0000 C   0  0  0  0  0  0  0  0  0  0  0  0
    4.5781    2.1098    0.0000 C   0  0  0  0  0  0  0  0  0  0  0  0
    4.3605    0.6257    0.0000 O   0  0  0  0  0  0  0  0  0  0  0  0
    6.0647    2.3096    0.0000 N   0  0  0  0  0  0  0  0  0  0  0  0
    6.9811    1.1220    0.0000 C   0  0  0  0  0  0  0  0  0  0  0  0
    7.4360   -0.3073    0.0000 C   0  0  0  0  0  0  0  0  0  0  0  0
    6.4256   -1.4160    0.0000 C   0  0  0  0  0  0  0  0  0  0  0  0
    6.7286   -2.8850    0.0000 C   0  0  0  0  0  0  0  0  0  0  0  0
    5.4251   -3.6272    0.0000 N   0  0  0  0  0  0  0  0  0  0  0  0
    4.3164   -2.6168    0.0000 C   0  0  0  0  0  0  0  0  0  0  0  0
    4.9348   -1.2502    0.0000 N   0  0  0  0  0  0  0  0  0  0  0  0
    8.4677    1.3218    0.0000 C   0  0  0  0  0  0  0  0  0  0  0  0
    9.0380    2.7092    0.0000 O   0  0  0  0  0  0  0  0  0  0  0  0
    9.3841    0.1343    0.0000 N   0  0  0  0  0  0  0  0  0  0  0  0
   10.8707    0.3341    0.0000 C   0  0  0  0  0  0  0  0  0  0  0  0
   12.1993    1.0303    0.0000 C   0  0  0  0  0  0  0  0  0  0  0  0
   13.5550    0.3882    0.0000 C   0  0  0  0  0  0  0  0  0  0  0  0
   11.7870   -0.8535    0.0000 C   0  0  0  0  0  0  0  0  0  0  0  0
   11.2168   -2.2408    0.0000 O   0  0  0  0  0  0  0  0  0  0  0  0
   13.2737   -0.6537    0.0000 N   0  0  0  0  0  0  0  0  0  0  0  0
   14.1900   -1.8412    0.0000 C   0  0  0  0  0  0  0  0  0  0  0  0
   14.6449   -3.2706    0.0000 C   0  0  0  0  0  0  0  0  0  0  0  0
   13.6346   -4.3792    0.0000 C   0  0  0  0  0  0  0  0  0  0  0  0
   14.0895   -5.8086    0.0000 C   0  0  0  0  0  0  0  0  0  0  0  0
   13.0791   -6.9172    0.0000 N   0  0  0  0  0  0  0  0  0  0  0  0
   15.5548   -6.1293    0.0000 O   0  0  0  0  0  0  0  0  0  0  0  0
   15.6767   -1.6414    0.0000 C   0  0  0  0  0  0  0  0  0  0  0  0
   16.2469   -0.2541    0.0000 O   0  0  0  0  0  0  0  0  0  0  0  0
   16.5930   -2.8290    0.0000 N   0  0  0  0  0  0  0  0  0  0  0  0
   18.0796   -2.6292    0.0000 C   0  0  0  0  0  0  0  0  0  0  0  0
   19.4083   -1.9330    0.0000 C   0  0  0  0  0  0  0  0  0  0  0  0
   20.6755   -2.7355    0.0000 C   0  0  0  0  0  0  0  0  0  0  0  0
   22.0042   -2.0393    0.0000 C   0  0  0  0  0  0  0  0  0  0  0  0
   23.2714   -2.8418    0.0000 N   0  0  0  0  0  0  0  0  0  0  0  0
   24.6001   -2.1456    0.0000 C   0  0  0  0  0  0  0  0  0  0  0  0
   25.7601   -3.0966    0.0000 N   0  0  0  0  0  0  0  0  0  0  0  0
   24.6615   -0.6469    0.0000 N   0  0  0  0  0  0  0  0  0  0  0  0
   18.9960   -3.8167    0.0000 C   0  0  0  0  0  0  0  0  0  0  0  0
   18.4257   -5.2041    0.0000 O   0  0  0  0  0  0  0  0  0  0  0  0
   20.4826   -3.6169    0.0000 N   0  0  0  0  0  0  0  0  0  0  0  0
   21.3990   -4.8045    0.0000 C   0  0  0  0  0  0  0  0  0  0  0  0
   21.8539   -6.2338    0.0000 C   0  0  0  0  0  0  0  0  0  0  0  0
   20.8435   -7.3425    0.0000 C   0  0  0  0  0  0  0  0  0  0  0  0
   22.8856   -4.6047    0.0000 C   0  0  0  0  0  0  0  0  0  0  0  0
   23.7747   -3.3965    0.0000 O   0  0  0  0  0  0  0  0  0  0  0  0
   23.8020   -5.7922    0.0000 N   0  0  0  0  0  0  0  0  0  0  0  0
   25.2886   -5.5924    0.0000 C   0  0  0  0  0  0  0  0  0  0  0  0
   26.6172   -4.8962    0.0000 C   0  0  0  0  0  0  0  0  0  0  0  0
   27.8845   -5.6988    0.0000 C   0  0  0  0  0  0  0  0  0  0  0  0
   29.2131   -5.0025    0.0000 S   0  0  0  0  0  0  0  0  0  0  0  0
   30.4804   -5.8051    0.0000 C   0  0  0  0  0  0  0  0  0  0  0  0
   26.2050   -6.7800    0.0000 C   0  0  0  0  0  0  0  0  0  0  0  0
   27.7049   -6.7629    0.0000 O   0  0  0  0  0  0  0  0  0  0  0  0
   25.6347   -8.1674    0.0000 O   0  0  0  0  0  0  0  0  0  0  0  0
  -16.8789   -8.6544    0.0000 H   0  0  0  0  0  0  0  0  0  0  0  0
  -21.1442   -7.2439    0.0000 H   0  0  0  0  0  0  0  0  0  0  0  0
  -23.4635   -9.1469    0.0000 H   0  0  0  0  0  0  0  0  0  0  0  0
  -17.7621  -10.9056    0.0000 H   0  0  0  0  0  0  0  0  0  0  0  0
  -18.5872  -18.0213    0.0000 H   0  0  0  0  0  0  0  0  0  0  0  0
  -23.7245  -17.2415    0.0000 H   0  0  0  0  0  0  0  0  0  0  0  0
  -23.2743  -14.2755    0.0000 H   0  0  0  0  0  0  0  0  0  0  0  0
  -22.7778  -19.6609    0.0000 H   0  0  0  0  0  0  0  0  0  0  0  0
  -20.0303  -10.2163    0.0000 H   0  0  0  0  0  0  0  0  0  0  0  0
  -17.0575   -9.1617    0.0000 H   0  0  0  0  0  0  0  0  0  0  0  0
  -15.3432  -13.9621    0.0000 H   0  0  0  0  0  0  0  0  0  0  0  0
  -13.7212  -11.9325    0.0000 H   0  0  0  0  0  0  0  0  0  0  0  0
  -16.0174   -6.3980    0.0000 H   0  0  0  0  0  0  0  0  0  0  0  0
  -18.4011   -3.0823    0.0000 H   0  0  0  0  0  0  0  0  0  0  0  0
  -19.0805   -4.8870    0.0000 H   0  0  0  0  0  0  0  0  0  0  0  0
  -15.0907   -2.9406    0.0000 H   0  0  0  0  0  0  0  0  0  0  0  0
  -15.7701   -4.7453    0.0000 H   0  0  0  0  0  0  0  0  0  0  0  0
  -14.1866   -1.5351    0.0000 H   0  0  0  0  0  0  0  0  0  0  0  0
  -17.2497   -0.0241    0.0000 H   0  0  0  0  0  0  0  0  0  0  0  0
  -17.7086    2.7574    0.0000 H   0  0  0  0  0  0  0  0  0  0  0  0
  -17.7298    0.8291    0.0000 H   0  0  0  0  0  0  0  0  0  0  0  0
  -13.4658    1.9735    0.0000 H   0  0  0  0  0  0  0  0  0  0  0  0
  -12.6904    5.4337    0.0000 H   0  0  0  0  0  0  0  0  0  0  0  0
  -14.4452    7.9015    0.0000 H   0  0  0  0  0  0  0  0  0  0  0  0
  -17.2880    8.8600    0.0000 H   0  0  0  0  0  0  0  0  0  0  0  0
  -19.5394    6.8772    0.0000 H   0  0  0  0  0  0  0  0  0  0  0  0
  -18.9480    3.9361    0.0000 H   0  0  0  0  0  0  0  0  0  0  0  0
  -17.1125    2.3430    0.0000 H   0  0  0  0  0  0  0  0  0  0  0  0
  -17.7114    3.9561    0.0000 H   0  0  0  0  0  0  0  0  0  0  0  0
  -17.4721    5.4896    0.0000 H   0  0  0  0  0  0  0  0  0  0  0  0
  -16.4828    6.4918    0.0000 H   0  0  0  0  0  0  0  0  0  0  0  0
  -14.5907    6.8040    0.0000 H   0  0  0  0  0  0  0  0  0  0  0  0
  -13.3318    6.1727    0.0000 H   0  0  0  0  0  0  0  0  0  0  0  0
  -12.7796    2.9373    0.0000 H   0  0  0  0  0  0  0  0  0  0  0  0
  -11.1836    2.6276    0.0000 H   0  0  0  0  0  0  0  0  0  0  0  0
  -11.0491    6.0405    0.0000 H   0  0  0  0  0  0  0  0  0  0  0  0
   -8.6947    7.5910    0.0000 H   0  0  0  0  0  0  0  0  0  0  0  0
  -10.4649    6.8261    0.0000 H   0  0  0  0  0  0  0  0  0  0  0  0
   -6.1704    5.6526    0.0000 H   0  0  0  0  0  0  0  0  0  0  0  0
   -7.5197    4.4849    0.0000 H   0  0  0  0  0  0  0  0  0  0  0  0
   -7.3304    6.5997    0.0000 H   0  0  0  0  0  0  0  0  0  0  0  0
   -7.2000    3.0452    0.0000 H   0  0  0  0  0  0  0  0  0  0  0  0
   -6.5353    1.7333    0.0000 H   0  0  0  0  0  0  0  0  0  0  0  0
   -6.3020    1.1536    0.0000 H   0  0  0  0  0  0  0  0  0  0  0  0
   -5.5092    0.3330    0.0000 H   0  0  0  0  0  0  0  0  0  0  0  0
   -5.0493   -0.0656    0.0000 H   0  0  0  0  0  0  0  0  0  0  0  0
   -3.7610   -0.7752    0.0000 H   0  0  0  0  0  0  0  0  0  0  0  0
   -2.7950   -1.3274    0.0000 H   0  0  0  0  0  0  0  0  0  0  0  0
   -7.4168    1.9688    0.0000 H   0  0  0  0  0  0  0  0  0  0  0  0
   -8.5788    2.8392    0.0000 H   0  0  0  0  0  0  0  0  0  0  0  0
   -8.3531    4.4952    0.0000 H   0  0  0  0  0  0  0  0  0  0  0  0
   -6.7506    8.2048    0.0000 H   0  0  0  0  0  0  0  0  0  0  0  0
   -6.1213    8.6866    0.0000 H   0  0  0  0  0  0  0  0  0  0  0  0
   -3.4958   10.4265    0.0000 H   0  0  0  0  0  0  0  0  0  0  0  0
   -6.8731   11.9025    0.0000 H   0  0  0  0  0  0  0  0  0  0  0  0
   -7.8634   10.4287    0.0000 H   0  0  0  0  0  0  0  0  0  0  0  0
   -6.9277    9.0893    0.0000 H   0  0  0  0  0  0  0  0  0  0  0  0
   -4.0222   12.8233    0.0000 H   0  0  0  0  0  0  0  0  0  0  0  0
   -3.2557   11.2119    0.0000 H   0  0  0  0  0  0  0  0  0  0  0  0
   -5.6986   13.9095    0.0000 H   0  0  0  0  0  0  0  0  0  0  0  0
   -7.3350   12.8894    0.0000 H   0  0  0  0  0  0  0  0  0  0  0  0
   -6.9138   11.3107    0.0000 H   0  0  0  0  0  0  0  0  0  0  0  0
   -2.2738   11.3986    0.0000 H   0  0  0  0  0  0  0  0  0  0  0  0
   -1.3230   11.2293    0.0000 H   0  0  0  0  0  0  0  0  0  0  0  0
    1.8283   11.7306    0.0000 H   0  0  0  0  0  0  0  0  0  0  0  0
    1.6742   10.2615    0.0000 H   0  0  0  0  0  0  0  0  0  0  0  0
   -1.4482   11.9387    0.0000 H   0  0  0  0  0  0  0  0  0  0  0  0
    0.5307   15.1532    0.0000 H   0  0  0  0  0  0  0  0  0  0  0  0
    2.1734   14.4563    0.0000 H   0  0  0  0  0  0  0  0  0  0  0  0
    1.9873   12.6816    0.0000 H   0  0  0  0  0  0  0  0  0  0  0  0
   -0.7229   15.1420    0.0000 H   0  0  0  0  0  0  0  0  0  0  0  0
   -2.3529   14.4159    0.0000 H   0  0  0  0  0  0  0  0  0  0  0  0
   -2.0011   12.5199    0.0000 H   0  0  0  0  0  0  0  0  0  0  0  0
    3.1962    9.9122    0.0000 H   0  0  0  0  0  0  0  0  0  0  0  0
    3.8269    8.9955    0.0000 H   0  0  0  0  0  0  0  0  0  0  0  0
    6.0891    7.0788    0.0000 H   0  0  0  0  0  0  0  0  0  0  0  0
    4.7687    6.1165    0.0000 H   0  0  0  0  0  0  0  0  0  0  0  0
    5.4445    4.7088    0.0000 H   0  0  0  0  0  0  0  0  0  0  0  0
    3.4817    0.5688    0.0000 H   0  0  0  0  0  0  0  0  0  0  0  0
    4.3845    1.5157    0.0000 H   0  0  0  0  0  0  0  0  0  0  0  0
    2.1618   -0.5588    0.0000 H   0  0  0  0  0  0  0  0  0  0  0  0
    3.1217    0.0581    0.0000 H   0  0  0  0  0  0  0  0  0  0  0  0
    0.2060   -1.2363    0.0000 H   0  0  0  0  0  0  0  0  0  0  0  0
    1.6226   -0.8413    0.0000 H   0  0  0  0  0  0  0  0  0  0  0  0
   -0.8609   -1.5523    0.0000 H   0  0  0  0  0  0  0  0  0  0  0  0
    6.3844    2.8354    0.0000 H   0  0  0  0  0  0  0  0  0  0  0  0
    6.2639    4.6158    0.0000 H   0  0  0  0  0  0  0  0  0  0  0  0
    4.8770    5.1242    0.0000 H   0  0  0  0  0  0  0  0  0  0  0  0
    6.7999    3.6171    0.0000 H   0  0  0  0  0  0  0  0  0  0  0  0
    5.6524    0.4258    0.0000 H   0  0  0  0  0  0  0  0  0  0  0  0
    8.2007   -1.5977    0.0000 H   0  0  0  0  0  0  0  0  0  0  0  0
    8.8936    0.0467    0.0000 H   0  0  0  0  0  0  0  0  0  0  0  0
    8.0952   -3.5034    0.0000 H   0  0  0  0  0  0  0  0  0  0  0  0
    5.2593   -5.1180    0.0000 H   0  0  0  0  0  0  0  0  0  0  0  0
    2.8474   -2.9198    0.0000 H   0  0  0  0  0  0  0  0  0  0  0  0
    8.9871   -1.3123    0.0000 H   0  0  0  0  0  0  0  0  0  0  0  0
   10.4158    1.7634    0.0000 H   0  0  0  0  0  0  0  0  0  0  0  0
   13.2097    2.1389    0.0000 H   0  0  0  0  0  0  0  0  0  0  0  0
   11.2830    2.2179    0.0000 H   0  0  0  0  0  0  0  0  0  0  0  0
   14.7952    0.9240    0.0000 H   0  0  0  0  0  0  0  0  0  0  0  0
   14.3829   -0.9598    0.0000 H   0  0  0  0  0  0  0  0  0  0  0  0
   13.0951   -1.2255    0.0000 H   0  0  0  0  0  0  0  0  0  0  0  0
   14.0088    0.6538    0.0000 H   0  0  0  0  0  0  0  0  0  0  0  0
   12.7864   -2.3703    0.0000 H   0  0  0  0  0  0  0  0  0  0  0  0
   15.4097   -4.5610    0.0000 H   0  0  0  0  0  0  0  0  0  0  0  0
   16.1026   -2.9166    0.0000 H   0  0  0  0  0  0  0  0  0  0  0  0
   12.3059   -5.0754    0.0000 H   0  0  0  0  0  0  0  0  0  0  0  0
   12.5803   -3.3122    0.0000 H   0  0  0  0  0  0  0  0  0  0  0  0
   13.5340   -8.3466    0.0000 H   0  0  0  0  0  0  0  0  0  0  0  0
   11.6138   -6.5965    0.0000 H   0  0  0  0  0  0  0  0  0  0  0  0
   16.1961   -4.2755    0.0000 H   0  0  0  0  0  0  0  0  0  0  0  0
   17.6247   -1.1998    0.0000 H   0  0  0  0  0  0  0  0  0  0  0  0
   20.2760   -0.7094    0.0000 H   0  0  0  0  0  0  0  0  0  0  0  0
   18.4919   -0.7454    0.0000 H   0  0  0  0  0  0  0  0  0  0  0  0
   21.5919   -3.9231    0.0000 H   0  0  0  0  0  0  0  0  0  0  0  0
   20.3041   -4.1888    0.0000 H   0  0  0  0  0  0  0  0  0  0  0  0
   23.0146   -0.9306    0.0000 H   0  0  0  0  0  0  0  0  0  0  0  0
   21.2394   -0.7489    0.0000 H   0  0  0  0  0  0  0  0  0  0  0  0
   23.5745   -4.3109    0.0000 H   0  0  0  0  0  0  0  0  0  0  0  0
   27.1960   -2.2519    0.0000 H   0  0  0  0  0  0  0  0  0  0  0  0
   25.6410   -4.4424    0.0000 H   0  0  0  0  0  0  0  0  0  0  0  0
   25.9901    0.0494    0.0000 H   0  0  0  0  0  0  0  0  0  0  0  0
   23.3942    0.1557    0.0000 H   0  0  0  0  0  0  0  0  0  0  0  0
   21.3717   -2.4088    0.0000 H   0  0  0  0  0  0  0  0  0  0  0  0
   19.9954   -5.3336    0.0000 H   0  0  0  0  0  0  0  0  0  0  0  0
   22.6187   -7.5242    0.0000 H   0  0  0  0  0  0  0  0  0  0  0  0
   23.3115   -5.8798    0.0000 H   0  0  0  0  0  0  0  0  0  0  0  0
   21.2984   -8.7718    0.0000 H   0  0  0  0  0  0  0  0  0  0  0  0
   19.5149   -8.0387    0.0000 H   0  0  0  0  0  0  0  0  0  0  0  0
   19.7892   -6.2755    0.0000 H   0  0  0  0  0  0  0  0  0  0  0  0
   23.4051   -7.2388    0.0000 H   0  0  0  0  0  0  0  0  0  0  0  0
   24.8337   -4.1631    0.0000 H   0  0  0  0  0  0  0  0  0  0  0  0
   27.6276   -3.7876    0.0000 H   0  0  0  0  0  0  0  0  0  0  0  0
   25.4408   -3.9657    0.0000 H   0  0  0  0  0  0  0  0  0  0  0  0
   28.6493   -6.9892    0.0000 H   0  0  0  0  0  0  0  0  0  0  0  0
   27.3386   -7.0959    0.0000 H   0  0  0  0  0  0  0  0  0  0  0  0
   31.8090   -5.1089    0.0000 H   0  0  0  0  0  0  0  0  0  0  0  0
   31.3968   -6.9926    0.0000 H   0  0  0  0  0  0  0  0  0  0  0  0
   29.6127   -7.0286    0.0000 H   0  0  0  0  0  0  0  0  0  0  0  0
  1  2  1  0
  2  3  1  0
  3  4  2  0
  4  5  1  0
  5  6  2  0
  6  7  1  0
  7  8  2  0
  7  9  1  0
  9 10  1  0
 10 11  1  0
 11 12  2  0
  9 13  1  0
 13 14  1  0
 14 15  2  0
 15 16  1  0
 16 17  2  0
 17 18  1  0
 16 19  1  0
 14 20  1  0
 20 21  1  0
 21 22  2  0
 22 23  1  0
 23 24  2  0
 24 25  1  0
 25 26  2  0
 25 27  1  0
  1 28  2  0
  1 29  1  0
 29 30  1  0
 30 31  1  0
 31 32  1  0
 32 33  2  0
 32 34  1  0
 34 35  1  0
 35 36  1  0
 36 37  1  0
 37 38  2  0
 38 39  1  0
 39 40  1  0
 40 41  2  0
 41 42  1  0
 42 43  2  0
 43 44  1  0
 44 45  2  0
 35 46  1  0
 46 47  2  0
 46 48  1  0
 48 49  1  0
 49 50  1  0
 50 51  1  0
 51 52  1  0
 52 53  1  0
 53 54  2  0
 53 55  1  0
 55 56  1  0
 56 57  1  0
 57 58  1  0
 58 59  1  0
 59 60  2  0
 59 61  1  0
 56 62  1  0
 62 63  2  0
 62 64  1  0
 65 64  1  6
 65 66  1  0
 66 67  1  0
 67 68  1  0
 68 69  1  0
 65 70  1  0
 65 71  1  0
 71 72  2  0
 71 73  1  0
 73 74  1  0
 74 75  1  0
 75 76  1  0
 75 77  1  0
 77 78  1  0
 74 79  1  0
 79 80  2  0
 79 81  1  0
 81 82  1  0
 82 83  1  0
 83 84  1  0
 84 85  1  0
 84 86  1  0
 82 87  1  0
 87 88  2  0
 87 89  1  0
 89 90  1  0
 90 91  1  0
 91 92  1  0
 92 93  2  0
 92 94  1  0
 90 95  1  0
 95 96  2  0
 95 97  1  0
 97 98  1  0
 98 99  1  0
 99100  1  0
100101  1  0
101102  1  0
 98103  1  0
 98104  1  6
104105  2  0
104106  1  0
106107  1  0
107108  1  0
108109  1  0
109110  2  0
110111  1  0
111112  1  0
112113  2  0
107114  1  0
114115  2  0
114116  1  0
116117  1  0
117118  1  0
118119  1  0
117120  1  0
120121  2  0
120122  1  0
122123  1  0
123124  1  0
124125  1  0
125126  1  0
126127  1  0
126128  2  0
123129  1  0
129130  2  0
129131  1  0
131132  1  0
132133  1  0
133134  1  0
134135  1  0
135136  1  0
136137  1  0
137138  2  3
137139  1  0
132140  1  0
140141  2  0
140142  1  0
142143  1  0
143144  1  0
144145  1  0
143146  1  0
146147  2  0
146148  1  0
148149  1  0
149150  1  0
150151  1  0
151152  1  0
152153  1  0
149154  1  0
154155  2  0
154156  1  0
  8  3  1  0
 45 37  1  0
 52 48  1  0
113109  1  0
 11  6  1  0
 45 40  1  0
 69102  2  0
 18 13  2  0
 22  9  1  0
 26 21  1  0
  2157  1  0
  4158  1  0
  5159  1  0
  8160  1  0
 15161  1  0
 17162  1  0
 18163  1  0
 19164  1  0
 23165  1  0
 24166  1  0
 26167  1  0
 27168  1  0
 29169  1  0
 30170  1  0
 30171  1  0
 31172  1  0
 31173  1  0
 34174  1  0
 35175  1  1
 36176  1  0
 36177  1  0
 38178  1  0
 39179  1  0
 41180  1  0
 42181  1  0
 43182  1  0
 44183  1  0
 49184  1  0
 49185  1  0
 50186  1  0
 50187  1  0
 51188  1  0
 51189  1  0
 52190  1  0
 55191  1  0
 56192  1  1
 57193  1  0
 57194  1  0
 58195  1  0
 58196  1  0
 64197  1  0
 66198  1  0
 66199  1  0
 67200  1  0
 67201  1  0
 68202  1  0
 68203  1  0
 69204  1  0
 70205  1  0
 70206  1  0
 70207  1  0
 73208  1  0
 74209  1  1
 75210  1  6
 76211  1  0
 76212  1  0
 76213  1  0
 77214  1  0
 77215  1  0
 78216  1  0
 78217  1  0
 78218  1  0
 81219  1  0
 82220  1  1
 83221  1  0
 83222  1  0
 84223  1  0
 85224  1  0
 85225  1  0
 85226  1  0
 86227  1  0
 86228  1  0
 86229  1  0
 89230  1  0
 90231  1  1
 91232  1  0
 91233  1  0
 97234  1  0
 99235  1  0
 99236  1  0
100237  1  0
100238  1  0
101239  1  0
101240  1  0
102241  1  0
103242  1  0
103243  1  0
103244  1  0
106245  1  0
107246  1  6
108247  1  0
108248  1  0
110249  1  0
111250  1  0
112251  1  0
116252  1  0
117253  1  1
118254  1  0
118255  1  0
119256  1  0
119257  1  0
119258  1  0
122259  1  0
123260  1  6
124261  1  0
124262  1  0
125263  1  0
125264  1  0
127265  1  0
127266  1  0
131267  1  0
132268  1  1
133269  1  0
133270  1  0
134271  1  0
134272  1  0
135273  1  0
135274  1  0
136275  1  0
138276  1  0
138277  1  0
139278  1  0
139279  1  0
142280  1  0
143281  1  6
144282  1  0
144283  1  0
145284  1  0
145285  1  0
145286  1  0
148287  1  0
149288  1  1
150289  1  0
150290  1  0
151291  1  0
151292  1  0
153293  1  0
153294  1  0
153295  1  0
M  CHG  4  61  -1  94  -1 138   1 156  -1
M  END
