
     RDKit          2D

375381  0  0  0  0  0  0  0  0999 V2000
  -22.0466    4.3801    0.0000 C   0  0  0  0  0  0  0  0  0  0  0  0
  -23.2368    5.2929    0.0000 N   0  0  0  0  0  0  0  0  0  0  0  0
  -23.0414    6.7801    0.0000 C   0  0  0  0  0  0  0  0  0  0  0  0
  -21.6557    7.3545    0.0000 C   0  0  0  0  0  0  0  0  0  0  0  0
  -21.4603    8.8417    0.0000 C   0  0  0  0  0  0  0  0  0  0  0  0
  -22.6505    9.7546    0.0000 C   0  0  0  0  0  0  0  0  0  0  0  0
  -24.0362    9.1802    0.0000 C   0  0  0  0  0  0  0  0  0  0  0  0
  -24.2316    7.6930    0.0000 C   0  0  0  0  0  0  0  0  0  0  0  0
  -25.0107   10.3206    0.0000 C   0  0  0  0  0  0  0  0  0  0  0  0
  -24.2272   11.5997    0.0000 O   0  0  0  0  0  0  0  0  0  0  0  0
  -22.7686   11.2499    0.0000 C   0  0  0  0  0  0  0  0  0  0  0  0
  -21.6282   12.2244    0.0000 O   0  0  0  0  0  0  0  0  0  0  0  0
  -25.8606   11.5565    0.0000 C   0  0  0  0  0  0  0  0  0  0  0  0
  -27.3559   11.4385    0.0000 C   0  0  0  0  0  0  0  0  0  0  0  0
  -28.2058   12.6745    0.0000 C   0  0  0  0  0  0  0  0  0  0  0  0
  -27.5604   14.0285    0.0000 C   0  0  0  0  0  0  0  0  0  0  0  0
  -26.0651   14.1466    0.0000 C   0  0  0  0  0  0  0  0  0  0  0  0
  -25.2151   12.9106    0.0000 C   0  0  0  0  0  0  0  0  0  0  0  0
  -28.4103   15.2645    0.0000 O   0  0  0  0  0  0  0  0  0  0  0  0
  -28.0014   10.0845    0.0000 O   0  0  0  0  0  0  0  0  0  0  0  0
  -27.1514    8.8485    0.0000 C   0  0  0  0  0  0  0  0  0  0  0  0
  -25.6561    8.9665    0.0000 C   0  0  0  0  0  0  0  0  0  0  0  0
  -25.5040    7.6755    0.0000 C   0  0  0  0  0  0  0  0  0  0  0  0
  -25.8482    6.9533    0.0000 C   0  0  0  0  0  0  0  0  0  0  0  0
  -26.6458    6.8903    0.0000 C   0  0  0  0  0  0  0  0  0  0  0  0
  -27.0991    7.5495    0.0000 C   0  0  0  0  0  0  0  0  0  0  0  0
  -27.5924    4.9044    0.0000 O   0  0  0  0  0  0  0  0  0  0  0  0
  -20.6609    4.9544    0.0000 S   0  0  0  0  0  0  0  0  0  0  0  0
  -22.2420    2.8928    0.0000 N   0  0  0  0  0  0  0  0  0  0  0  0
  -21.0517    1.9800    0.0000 C   0  0  0  0  0  0  0  0  0  0  0  0
  -21.2471    0.4928    0.0000 C   0  0  0  0  0  0  0  0  0  0  0  0
  -20.0569   -0.4201    0.0000 C   0  0  0  0  0  0  0  0  0  0  0  0
  -19.4162    0.0543    0.0000 O   0  0  0  0  0  0  0  0  0  0  0  0
  -20.2523   -1.9073    0.0000 N   0  0  0  0  0  0  0  0  0  0  0  0
  -19.0621   -2.8201    0.0000 C   0  0  0  0  0  0  0  0  0  0  0  0
  -18.3698   -1.4894    0.0000 C   0  0  0  0  0  0  0  0  0  0  0  0
  -19.1760   -0.2246    0.0000 C   0  0  0  0  0  0  0  0  0  0  0  0
  -18.4837    1.1061    0.0000 C   0  0  0  0  0  0  0  0  0  0  0  0
  -19.2900    2.3710    0.0000 N   0  0  0  0  0  0  0  0  0  0  0  0
  -18.5977    3.7017    0.0000 C   0  0  0  0  0  0  0  0  0  0  0  0
  -19.4040    4.9666    0.0000 N   0  0  0  0  0  0  0  0  0  0  0  0
  -17.0991    3.7675    0.0000 N   0  0  0  0  0  0  0  0  0  0  0  0
  -18.2558   -4.0850    0.0000 C   0  0  0  0  0  0  0  0  0  0  0  0
  -16.7572   -4.0192    0.0000 O   0  0  0  0  0  0  0  0  0  0  0  0
  -18.9481   -5.4157    0.0000 N   0  0  0  0  0  0  0  0  0  0  0  0
  -18.1418   -6.6806    0.0000 C   0  0  0  0  0  0  0  0  0  0  0  0
  -19.5275   -7.2550    0.0000 C   0  0  0  0  0  0  0  0  0  0  0  0
  -20.7178   -6.3421    0.0000 C   0  0  0  0  0  0  0  0  0  0  0  0
  -22.1035   -6.9165    0.0000 C   0  0  0  0  0  0  0  0  0  0  0  0
  -23.2937   -6.0036    0.0000 N   0  0  0  0  0  0  0  0  0  0  0  0
  -24.6794   -6.5780    0.0000 C   0  0  0  0  0  0  0  0  0  0  0  0
  -25.8696   -5.6651    0.0000 N   0  0  0  0  0  0  0  0  0  0  0  0
  -24.8748   -8.0652    0.0000 N   0  0  0  0  0  0  0  0  0  0  0  0
  -16.9516   -7.5935    0.0000 C   0  0  0  0  0  0  0  0  0  0  0  0
  -17.1470   -9.0807    0.0000 O   0  0  0  0  0  0  0  0  0  0  0  0
  -15.5659   -7.0191    0.0000 N   0  0  0  0  0  0  0  0  0  0  0  0
  -14.3757   -7.9319    0.0000 C   0  0  0  0  0  0  0  0  0  0  0  0
  -12.9900   -7.3576    0.0000 C   0  0  0  0  0  0  0  0  0  0  0  0
  -12.9773   -5.8576    0.0000 O   0  0  0  0  0  0  0  0  0  0  0  0
  -11.7997   -8.2704    0.0000 N   0  0  0  0  0  0  0  0  0  0  0  0
  -10.4140   -7.6961    0.0000 C   0  0  0  0  0  0  0  0  0  0  0  0
  -11.2203   -6.4312    0.0000 C   0  0  0  0  0  0  0  0  0  0  0  0
  -12.7157   -6.3138    0.0000 O   0  0  0  0  0  0  0  0  0  0  0  0
   -8.9155   -7.6303    0.0000 C   0  0  0  0  0  0  0  0  0  0  0  0
   -8.5658   -6.1716    0.0000 O   0  0  0  0  0  0  0  0  0  0  0  0
   -8.1092   -8.8952    0.0000 N   0  0  0  0  0  0  0  0  0  0  0  0
   -6.6107   -8.8294    0.0000 C   0  0  0  0  0  0  0  0  0  0  0  0
   -6.9357   -7.3650    0.0000 C   0  0  0  0  0  0  0  0  0  0  0  0
   -8.3664   -6.9143    0.0000 C   0  0  0  0  0  0  0  0  0  0  0  0
   -8.6914   -5.4499    0.0000 C   0  0  0  0  0  0  0  0  0  0  0  0
  -10.1221   -4.9992    0.0000 N   0  0  0  0  0  0  0  0  0  0  0  0
  -10.4471   -3.5348    0.0000 C   0  0  0  0  0  0  0  0  0  0  0  0
  -11.8778   -3.0841    0.0000 N   0  0  0  0  0  0  0  0  0  0  0  0
   -9.3414   -2.5212    0.0000 N   0  0  0  0  0  0  0  0  0  0  0  0
   -5.1800   -9.2801    0.0000 C   0  0  0  0  0  0  0  0  0  0  0  0
   -4.0743   -8.2664    0.0000 O   0  0  0  0  0  0  0  0  0  0  0  0
   -4.8550  -10.7444    0.0000 N   0  0  0  0  0  0  0  0  0  0  0  0
   -5.8486  -11.8681    0.0000 C   0  0  0  0  0  0  0  0  0  0  0  0
   -5.0870  -13.1604    0.0000 C   0  0  0  0  0  0  0  0  0  0  0  0
   -3.6226  -12.8353    0.0000 C   0  0  0  0  0  0  0  0  0  0  0  0
   -3.4792  -11.3422    0.0000 C   0  0  0  0  0  0  0  0  0  0  0  0
   -2.0093  -11.6409    0.0000 C   0  0  0  0  0  0  0  0  0  0  0  0
   -1.0156  -10.5172    0.0000 O   0  0  0  0  0  0  0  0  0  0  0  0
   -1.5330  -13.0633    0.0000 N   0  0  0  0  0  0  0  0  0  0  0  0
   -0.0630  -13.3620    0.0000 C   0  0  0  0  0  0  0  0  0  0  0  0
   -0.6124  -14.7577    0.0000 C   0  0  0  0  0  0  0  0  0  0  0  0
   -2.0578  -15.1590    0.0000 O   0  0  0  0  0  0  0  0  0  0  0  0
    1.4205  -13.1399    0.0000 C   0  0  0  0  0  0  0  0  0  0  0  0
    2.3545  -14.3136    0.0000 O   0  0  0  0  0  0  0  0  0  0  0  0
    1.9699  -11.7441    0.0000 N   0  0  0  0  0  0  0  0  0  0  0  0
    3.4533  -11.5220    0.0000 C   0  0  0  0  0  0  0  0  0  0  0  0
    4.0028  -10.1263    0.0000 C   0  0  0  0  0  0  0  0  0  0  0  0
    2.9326   -9.0752    0.0000 O   0  0  0  0  0  0  0  0  0  0  0  0
    5.4862   -9.9042    0.0000 N   0  0  0  0  0  0  0  0  0  0  0  0
    6.0356   -8.5084    0.0000 C   0  0  0  0  0  0  0  0  0  0  0  0
    4.5657   -8.2098    0.0000 C   0  0  0  0  0  0  0  0  0  0  0  0
    7.0293   -7.3848    0.0000 C   0  0  0  0  0  0  0  0  0  0  0  0
    6.2230   -6.1199    0.0000 O   0  0  0  0  0  0  0  0  0  0  0  0
    8.4992   -7.6835    0.0000 N   0  0  0  0  0  0  0  0  0  0  0  0
    9.4929   -6.5598    0.0000 C   0  0  0  0  0  0  0  0  0  0  0  0
    8.0448   -6.1685    0.0000 C   0  0  0  0  0  0  0  0  0  0  0  0
    6.6970   -5.5102    0.0000 C   0  0  0  0  0  0  0  0  0  0  0  0
    5.4981   -4.6087    0.0000 C   0  0  0  0  0  0  0  0  0  0  0  0
    4.4915   -3.4966    0.0000 C   0  0  0  0  0  0  0  0  0  0  0  0
    3.7135   -2.2141    0.0000 C   0  0  0  0  0  0  0  0  0  0  0  0
    3.1923   -0.8076    0.0000 C   0  0  0  0  0  0  0  0  0  0  0  0
    2.9468    0.6722    0.0000 C   0  0  0  0  0  0  0  0  0  0  0  0
   10.0585   -7.9491    0.0000 C   0  0  0  0  0  0  0  0  0  0  0  0
   10.9888   -6.6700    0.0000 C   0  0  0  0  0  0  0  0  0  0  0  0
   11.2039   -8.1545    0.0000 O   0  0  0  0  0  0  0  0  0  0  0  0
   12.4786   -6.4951    0.0000 N   0  0  0  0  0  0  0  0  0  0  0  0
   13.9084   -6.0414    0.0000 C   0  0  0  0  0  0  0  0  0  0  0  0
   15.1353   -6.9044    0.0000 C   0  0  0  0  0  0  0  0  0  0  0  0
   15.0013   -8.3984    0.0000 C   0  0  0  0  0  0  0  0  0  0  0  0
   16.2282   -9.2614    0.0000 C   0  0  0  0  0  0  0  0  0  0  0  0
   16.0943  -10.7554    0.0000 N   0  0  0  0  0  0  0  0  0  0  0  0
   17.3212  -11.6184    0.0000 C   0  0  0  0  0  0  0  0  0  0  0  0
   17.1873  -13.1124    0.0000 N   0  0  0  0  0  0  0  0  0  0  0  0
   18.6820  -10.9874    0.0000 N   0  0  0  0  0  0  0  0  0  0  0  0
   15.2264   -5.3253    0.0000 C   0  0  0  0  0  0  0  0  0  0  0  0
   16.2099   -6.4579    0.0000 O   0  0  0  0  0  0  0  0  0  0  0  0
   16.3851   -4.3728    0.0000 N   0  0  0  0  0  0  0  0  0  0  0  0
   17.3426   -3.2181    0.0000 C   0  0  0  0  0  0  0  0  0  0  0  0
   18.8413   -3.2808    0.0000 C   0  0  0  0  0  0  0  0  0  0  0  0
   19.5364   -4.6101    0.0000 C   0  0  0  0  0  0  0  0  0  0  0  0
   21.0351   -4.6728    0.0000 C   0  0  0  0  0  0  0  0  0  0  0  0
   21.7301   -6.0020    0.0000 N   0  0  0  0  0  0  0  0  0  0  0  0
   23.2288   -6.0647    0.0000 C   0  0  0  0  0  0  0  0  0  0  0  0
   23.9239   -7.3939    0.0000 N   0  0  0  0  0  0  0  0  0  0  0  0
   24.0324   -4.7981    0.0000 N   0  0  0  0  0  0  0  0  0  0  0  0
   18.0643   -1.9032    0.0000 C   0  0  0  0  0  0  0  0  0  0  0  0
   19.5040   -2.3242    0.0000 O   0  0  0  0  0  0  0  0  0  0  0  0
   18.5241   -0.4754    0.0000 N   0  0  0  0  0  0  0  0  0  0  0  0
   18.7053    1.0136    0.0000 C   0  0  0  0  0  0  0  0  0  0  0  0
   20.0000    1.7712    0.0000 C   0  0  0  0  0  0  0  0  0  0  0  0
   21.3034    1.0287    0.0000 C   0  0  0  0  0  0  0  0  0  0  0  0
   22.5980    1.7862    0.0000 C   0  0  0  0  0  0  0  0  0  0  0  0
   23.9014    1.0438    0.0000 N   0  0  0  0  0  0  0  0  0  0  0  0
   25.1961    1.8013    0.0000 C   0  0  0  0  0  0  0  0  0  0  0  0
   26.4994    1.0588    0.0000 N   0  0  0  0  0  0  0  0  0  0  0  0
   25.1874    3.3013    0.0000 N   0  0  0  0  0  0  0  0  0  0  0  0
   18.6015    2.5100    0.0000 C   0  0  0  0  0  0  0  0  0  0  0  0
   20.0403    2.9342    0.0000 O   0  0  0  0  0  0  0  0  0  0  0  0
   18.2164    3.9598    0.0000 N   0  0  0  0  0  0  0  0  0  0  0  0
   17.5639    5.3104    0.0000 C   0  0  0  0  0  0  0  0  0  0  0  0
   18.2435    6.6476    0.0000 C   0  0  0  0  0  0  0  0  0  0  0  0
   19.7413    6.7277    0.0000 C   0  0  0  0  0  0  0  0  0  0  0  0
   20.4209    8.0649    0.0000 C   0  0  0  0  0  0  0  0  0  0  0  0
   21.9188    8.1449    0.0000 N   0  0  0  0  0  0  0  0  0  0  0  0
   22.5984    9.4822    0.0000 C   0  0  0  0  0  0  0  0  0  0  0  0
   24.0962    9.5622    0.0000 N   0  0  0  0  0  0  0  0  0  0  0  0
   21.7801   10.7393    0.0000 N   0  0  0  0  0  0  0  0  0  0  0  0
   16.6675    6.5131    0.0000 C   0  0  0  0  0  0  0  0  0  0  0  0
   17.6486    7.6478    0.0000 O   0  0  0  0  0  0  0  0  0  0  0  0
   15.5597    7.5245    0.0000 N   0  0  0  0  0  0  0  0  0  0  0  0
   14.2806    8.3079    0.0000 C   0  0  0  0  0  0  0  0  0  0  0  0
   14.1294    9.8003    0.0000 C   0  0  0  0  0  0  0  0  0  0  0  0
   15.3462   10.6774    0.0000 C   0  0  0  0  0  0  0  0  0  0  0  0
   15.1949   12.1698    0.0000 C   0  0  0  0  0  0  0  0  0  0  0  0
   16.4117   13.0469    0.0000 N   0  0  0  0  0  0  0  0  0  0  0  0
   16.2605   14.5393    0.0000 C   0  0  0  0  0  0  0  0  0  0  0  0
   17.4773   15.4164    0.0000 N   0  0  0  0  0  0  0  0  0  0  0  0
   14.8924   15.1545    0.0000 N   0  0  0  0  0  0  0  0  0  0  0  0
   12.8763    8.8351    0.0000 C   0  0  0  0  0  0  0  0  0  0  0  0
   13.0882   10.3201    0.0000 O   0  0  0  0  0  0  0  0  0  0  0  0
   11.3976    9.0870    0.0000 N   0  0  0  0  0  0  0  0  0  0  0  0
    9.8979    9.0545    0.0000 C   0  0  0  0  0  0  0  0  0  0  0  0
    8.9639   10.2282    0.0000 C   0  0  0  0  0  0  0  0  0  0  0  0
    8.4315    8.7388    0.0000 C   0  0  0  0  0  0  0  0  0  0  0  0
    7.8070   10.1026    0.0000 O   0  0  0  0  0  0  0  0  0  0  0  0
    7.0514    8.1513    0.0000 N   0  0  0  0  0  0  0  0  0  0  0  0
    5.8074    7.3132    0.0000 C   0  0  0  0  0  0  0  0  0  0  0  0
    4.7445    6.2548    0.0000 C   0  0  0  0  0  0  0  0  0  0  0  0
    3.9010    5.0143    0.0000 C   0  0  0  0  0  0  0  0  0  0  0  0
    3.3076    3.6367    0.0000 C   0  0  0  0  0  0  0  0  0  0  0  0
    2.9857    2.1717    0.0000 C   0  0  0  0  0  0  0  0  0  0  0  0
    5.6089    8.8000    0.0000 C   0  0  0  0  0  0  0  0  0  0  0  0
    4.3871    7.7955    0.0000 C   0  0  0  0  0  0  0  0  0  0  0  0
    3.0534    7.1090    0.0000 O   0  0  0  0  0  0  0  0  0  0  0  0
    4.0946    9.2667    0.0000 N   0  0  0  0  0  0  0  0  0  0  0  0
    2.6743    9.7491    0.0000 C   0  0  0  0  0  0  0  0  0  0  0  0
    1.1747    9.7166    0.0000 C   0  0  0  0  0  0  0  0  0  0  0  0
    2.3819   11.2203    0.0000 C   0  0  0  0  0  0  0  0  0  0  0  0
    3.5098   12.2092    0.0000 O   0  0  0  0  0  0  0  0  0  0  0  0
    0.9616   11.7027    0.0000 N   0  0  0  0  0  0  0  0  0  0  0  0
    0.6692   13.1739    0.0000 C   0  0  0  0  0  0  0  0  0  0  0  0
    0.8976   14.6564    0.0000 C   0  0  0  0  0  0  0  0  0  0  0  0
   -0.7511   13.6563    0.0000 C   0  0  0  0  0  0  0  0  0  0  0  0
   -1.2207   15.0809    0.0000 O   0  0  0  0  0  0  0  0  0  0  0  0
   -1.8791   12.6675    0.0000 O   0  0  0  0  0  0  0  0  0  0  0  0
  -24.5421    4.5539    0.0000 H   0  0  0  0  0  0  0  0  0  0  0  0
  -20.4654    6.4416    0.0000 H   0  0  0  0  0  0  0  0  0  0  0  0
  -20.0746    9.4161    0.0000 H   0  0  0  0  0  0  0  0  0  0  0  0
  -25.4372    6.8004    0.0000 H   0  0  0  0  0  0  0  0  0  0  0  0
  -29.7012   12.5564    0.0000 H   0  0  0  0  0  0  0  0  0  0  0  0
  -25.4196   15.5006    0.0000 H   0  0  0  0  0  0  0  0  0  0  0  0
  -23.7198   13.0286    0.0000 H   0  0  0  0  0  0  0  0  0  0  0  0
  -27.7649   16.6185    0.0000 H   0  0  0  0  0  0  0  0  0  0  0  0
  -23.3108    7.8486    0.0000 H   0  0  0  0  0  0  0  0  0  0  0  0
  -24.7587    5.0461    0.0000 H   0  0  0  0  0  0  0  0  0  0  0  0
  -29.2922    7.3764    0.0000 H   0  0  0  0  0  0  0  0  0  0  0  0
  -29.0877    4.7864    0.0000 H   0  0  0  0  0  0  0  0  0  0  0  0
  -23.6277    2.3185    0.0000 H   0  0  0  0  0  0  0  0  0  0  0  0
  -20.3594    3.3107    0.0000 H   0  0  0  0  0  0  0  0  0  0  0  0
  -19.5545    1.8889    0.0000 H   0  0  0  0  0  0  0  0  0  0  0  0
  -22.6778    0.9435    0.0000 H   0  0  0  0  0  0  0  0  0  0  0  0
  -21.9394   -0.8379    0.0000 H   0  0  0  0  0  0  0  0  0  0  0  0
  -21.6380   -2.4816    0.0000 H   0  0  0  0  0  0  0  0  0  0  0  0
  -20.1677   -3.8338    0.0000 H   0  0  0  0  0  0  0  0  0  0  0  0
  -17.1488   -0.6181    0.0000 H   0  0  0  0  0  0  0  0  0  0  0  0
  -17.1795   -2.4023    0.0000 H   0  0  0  0  0  0  0  0  0  0  0  0
  -20.3663    0.6883    0.0000 H   0  0  0  0  0  0  0  0  0  0  0  0
  -20.4941   -0.9406    0.0000 H   0  0  0  0  0  0  0  0  0  0  0  0
  -17.3781    2.1198    0.0000 H   0  0  0  0  0  0  0  0  0  0  0  0
  -17.1911    0.3452    0.0000 H   0  0  0  0  0  0  0  0  0  0  0  0
  -20.7599    2.6698    0.0000 H   0  0  0  0  0  0  0  0  0  0  0  0
  -18.7117    6.2973    0.0000 H   0  0  0  0  0  0  0  0  0  0  0  0
  -16.4068    5.0982    0.0000 H   0  0  0  0  0  0  0  0  0  0  0  0
  -16.2929    2.5026    0.0000 H   0  0  0  0  0  0  0  0  0  0  0  0
  -20.4435   -5.2983    0.0000 H   0  0  0  0  0  0  0  0  0  0  0  0
  -17.0362   -5.6669    0.0000 H   0  0  0  0  0  0  0  0  0  0  0  0
  -20.5014   -8.3958    0.0000 H   0  0  0  0  0  0  0  0  0  0  0  0
  -18.7213   -8.5199    0.0000 H   0  0  0  0  0  0  0  0  0  0  0  0
  -21.5240   -5.0772    0.0000 H   0  0  0  0  0  0  0  0  0  0  0  0
  -20.0489   -4.9995    0.0000 H   0  0  0  0  0  0  0  0  0  0  0  0
  -23.2091   -7.9301    0.0000 H   0  0  0  0  0  0  0  0  0  0  0  0
  -21.4574   -8.2702    0.0000 H   0  0  0  0  0  0  0  0  0  0  0  0
  -23.0983   -4.5164    0.0000 H   0  0  0  0  0  0  0  0  0  0  0  0
  -27.2553   -6.2395    0.0000 H   0  0  0  0  0  0  0  0  0  0  0  0
  -26.2605   -8.6396    0.0000 H   0  0  0  0  0  0  0  0  0  0  0  0
  -23.6846   -8.9781    0.0000 H   0  0  0  0  0  0  0  0  0  0  0  0
  -15.3705   -5.5319    0.0000 H   0  0  0  0  0  0  0  0  0  0  0  0
  -15.4813   -8.9456    0.0000 H   0  0  0  0  0  0  0  0  0  0  0  0
  -13.5694   -9.1968    0.0000 H   0  0  0  0  0  0  0  0  0  0  0  0
  -11.9951   -9.7576    0.0000 H   0  0  0  0  0  0  0  0  0  0  0  0
  -10.0890   -9.1604    0.0000 H   0  0  0  0  0  0  0  0  0  0  0  0
  -11.5453   -4.9668    0.0000 H   0  0  0  0  0  0  0  0  0  0  0  0
  -10.0148   -5.5386    0.0000 H   0  0  0  0  0  0  0  0  0  0  0  0
  -13.5251   -5.2321    0.0000 H   0  0  0  0  0  0  0  0  0  0  0  0
   -8.8015  -10.2258    0.0000 H   0  0  0  0  0  0  0  0  0  0  0  0
   -6.9859  -10.2817    0.0000 H   0  0  0  0  0  0  0  0  0  0  0  0
   -6.5604   -5.9127    0.0000 H   0  0  0  0  0  0  0  0  0  0  0  0
   -5.4371   -7.2992    0.0000 H   0  0  0  0  0  0  0  0  0  0  0  0
   -9.8649   -6.9801    0.0000 H   0  0  0  0  0  0  0  0  0  0  0  0
   -8.9159   -8.3100    0.0000 H   0  0  0  0  0  0  0  0  0  0  0  0
   -8.4960   -3.9627    0.0000 H   0  0  0  0  0  0  0  0  0  0  0  0
   -7.2120   -5.2019    0.0000 H   0  0  0  0  0  0  0  0  0  0  0  0
  -11.4402   -5.7152    0.0000 H   0  0  0  0  0  0  0  0  0  0  0  0
  -12.2028   -1.6198    0.0000 H   0  0  0  0  0  0  0  0  0  0  0  0
   -9.6665   -1.0568    0.0000 H   0  0  0  0  0  0  0  0  0  0  0  0
   -7.9107   -2.9719    0.0000 H   0  0  0  0  0  0  0  0  0  0  0  0
   -6.9895  -10.8942    0.0000 H   0  0  0  0  0  0  0  0  0  0  0  0
   -7.0542  -12.7606    0.0000 H   0  0  0  0  0  0  0  0  0  0  0  0
   -6.4518  -13.7827    0.0000 H   0  0  0  0  0  0  0  0  0  0  0  0
   -4.6107  -14.5827    0.0000 H   0  0  0  0  0  0  0  0  0  0  0  0
   -3.4525  -14.3257    0.0000 H   0  0  0  0  0  0  0  0  0  0  0  0
   -2.1640  -13.1852    0.0000 H   0  0  0  0  0  0  0  0  0  0  0  0
   -3.0285   -9.9115    0.0000 H   0  0  0  0  0  0  0  0  0  0  0  0
   -2.6562  -14.0574    0.0000 H   0  0  0  0  0  0  0  0  0  0  0  0
   -0.0241  -11.8625    0.0000 H   0  0  0  0  0  0  0  0  0  0  0  0
   -0.6513  -16.2572    0.0000 H   0  0  0  0  0  0  0  0  0  0  0  0
    0.8575  -15.0564    0.0000 H   0  0  0  0  0  0  0  0  0  0  0  0
   -2.6453  -16.3756    0.0000 H   0  0  0  0  0  0  0  0  0  0  0  0
    1.0358  -10.5704    0.0000 H   0  0  0  0  0  0  0  0  0  0  0  0
    3.4144  -13.0215    0.0000 H   0  0  0  0  0  0  0  0  0  0  0  0
    4.9233  -11.8207    0.0000 H   0  0  0  0  0  0  0  0  0  0  0  0
    6.4203  -11.0779    0.0000 H   0  0  0  0  0  0  0  0  0  0  0  0
    7.3148   -9.2919    0.0000 H   0  0  0  0  0  0  0  0  0  0  0  0
    3.4425   -9.2039    0.0000 H   0  0  0  0  0  0  0  0  0  0  0  0
    3.2865   -7.4263    0.0000 H   0  0  0  0  0  0  0  0  0  0  0  0
    5.1151   -6.8140    0.0000 H   0  0  0  0  0  0  0  0  0  0  0  0
    8.7986   -9.1533    0.0000 H   0  0  0  0  0  0  0  0  0  0  0  0
    7.9726   -7.6667    0.0000 H   0  0  0  0  0  0  0  0  0  0  0  0
    6.7538   -6.9321    0.0000 H   0  0  0  0  0  0  0  0  0  0  0  0
    6.1675   -6.9136    0.0000 H   0  0  0  0  0  0  0  0  0  0  0  0
    5.3569   -6.1840    0.0000 H   0  0  0  0  0  0  0  0  0  0  0  0
    5.2228   -6.0832    0.0000 H   0  0  0  0  0  0  0  0  0  0  0  0
    4.1152   -5.1897    0.0000 H   0  0  0  0  0  0  0  0  0  0  0  0
    3.7761   -4.8150    0.0000 H   0  0  0  0  0  0  0  0  0  0  0  0
    3.0236   -3.8054    0.0000 H   0  0  0  0  0  0  0  0  0  0  0  0
    2.7615   -3.3733    0.0000 H   0  0  0  0  0  0  0  0  0  0  0  0
    2.2138   -2.2395    0.0000 H   0  0  0  0  0  0  0  0  0  0  0  0
    2.0381   -1.7656    0.0000 H   0  0  0  0  0  0  0  0  0  0  0  0
    1.7574   -0.3705    0.0000 H   0  0  0  0  0  0  0  0  0  0  0  0
    1.4504    0.5684    0.0000 H   0  0  0  0  0  0  0  0  0  0  0  0
    9.2893   -9.2369    0.0000 H   0  0  0  0  0  0  0  0  0  0  0  0
   10.9220   -9.1756    0.0000 H   0  0  0  0  0  0  0  0  0  0  0  0
   11.4838   -7.4819    0.0000 H   0  0  0  0  0  0  0  0  0  0  0  0
   12.6132   -7.9890    0.0000 H   0  0  0  0  0  0  0  0  0  0  0  0
   13.5009   -7.4850    0.0000 H   0  0  0  0  0  0  0  0  0  0  0  0
   16.5833   -7.2957    0.0000 H   0  0  0  0  0  0  0  0  0  0  0  0
   16.0818   -5.7407    0.0000 H   0  0  0  0  0  0  0  0  0  0  0  0
   14.3645   -9.7565    0.0000 H   0  0  0  0  0  0  0  0  0  0  0  0
   13.5016   -8.3691    0.0000 H   0  0  0  0  0  0  0  0  0  0  0  0
   17.6763   -9.6527    0.0000 H   0  0  0  0  0  0  0  0  0  0  0  0
   17.0258   -7.9910    0.0000 H   0  0  0  0  0  0  0  0  0  0  0  0
   14.7335  -11.3864    0.0000 H   0  0  0  0  0  0  0  0  0  0  0  0
   18.4141  -13.9754    0.0000 H   0  0  0  0  0  0  0  0  0  0  0  0
   19.9089  -11.8503    0.0000 H   0  0  0  0  0  0  0  0  0  0  0  0
   18.8159   -9.4934    0.0000 H   0  0  0  0  0  0  0  0  0  0  0  0
   17.3061   -5.5568    0.0000 H   0  0  0  0  0  0  0  0  0  0  0  0
   17.7804   -4.6529    0.0000 H   0  0  0  0  0  0  0  0  0  0  0  0
   20.2711   -2.8272    0.0000 H   0  0  0  0  0  0  0  0  0  0  0  0
   19.0085   -1.7902    0.0000 H   0  0  0  0  0  0  0  0  0  0  0  0
   19.7349   -6.0969    0.0000 H   0  0  0  0  0  0  0  0  0  0  0  0
   18.2589   -5.3962    0.0000 H   0  0  0  0  0  0  0  0  0  0  0  0
   22.4648   -4.2191    0.0000 H   0  0  0  0  0  0  0  0  0  0  0  0
   21.0193   -3.1728    0.0000 H   0  0  0  0  0  0  0  0  0  0  0  0
   20.9265   -7.2686    0.0000 H   0  0  0  0  0  0  0  0  0  0  0  0
   25.4226   -7.4566    0.0000 H   0  0  0  0  0  0  0  0  0  0  0  0
   25.5311   -4.8608    0.0000 H   0  0  0  0  0  0  0  0  0  0  0  0
   23.3374   -3.4689    0.0000 H   0  0  0  0  0  0  0  0  0  0  0  0
   19.9390   -0.9735    0.0000 H   0  0  0  0  0  0  0  0  0  0  0  0
   19.8493    0.0433    0.0000 H   0  0  0  0  0  0  0  0  0  0  0  0
   20.9575    2.9258    0.0000 H   0  0  0  0  0  0  0  0  0  0  0  0
   19.3347    3.1156    0.0000 H   0  0  0  0  0  0  0  0  0  0  0  0
   22.2742   -0.1148    0.0000 H   0  0  0  0  0  0  0  0  0  0  0  0
   20.6537   -0.3233    0.0000 H   0  0  0  0  0  0  0  0  0  0  0  0
   23.5556    2.9409    0.0000 H   0  0  0  0  0  0  0  0  0  0  0  0
   21.7738    3.0395    0.0000 H   0  0  0  0  0  0  0  0  0  0  0  0
   23.9101   -0.4562    0.0000 H   0  0  0  0  0  0  0  0  0  0  0  0
   27.7941    1.8164    0.0000 H   0  0  0  0  0  0  0  0  0  0  0  0
   26.4821    4.0588    0.0000 H   0  0  0  0  0  0  0  0  0  0  0  0
   23.8840    4.0437    0.0000 H   0  0  0  0  0  0  0  0  0  0  0  0
   19.6760    4.3056    0.0000 H   0  0  0  0  0  0  0  0  0  0  0  0
   19.0508    5.1126    0.0000 H   0  0  0  0  0  0  0  0  0  0  0  0
   18.4247    8.1366    0.0000 H   0  0  0  0  0  0  0  0  0  0  0  0
   16.9570    7.4189    0.0000 H   0  0  0  0  0  0  0  0  0  0  0  0
   21.1762    6.2906    0.0000 H   0  0  0  0  0  0  0  0  0  0  0  0
   19.9258    5.2390    0.0000 H   0  0  0  0  0  0  0  0  0  0  0  0
   20.6022    9.5539    0.0000 H   0  0  0  0  0  0  0  0  0  0  0  0
   19.0500    8.6736    0.0000 H   0  0  0  0  0  0  0  0  0  0  0  0
   22.7370    6.8878    0.0000 H   0  0  0  0  0  0  0  0  0  0  0  0
   24.7758   10.8994    0.0000 H   0  0  0  0  0  0  0  0  0  0  0  0
   22.4597   12.0765    0.0000 H   0  0  0  0  0  0  0  0  0  0  0  0
   20.2823   10.6593    0.0000 H   0  0  0  0  0  0  0  0  0  0  0  0
   16.6006    8.6045    0.0000 H   0  0  0  0  0  0  0  0  0  0  0  0
   15.6384    8.9454    0.0000 H   0  0  0  0  0  0  0  0  0  0  0  0
   13.4768   11.1509    0.0000 H   0  0  0  0  0  0  0  0  0  0  0  0
   12.6301    9.7536    0.0000 H   0  0  0  0  0  0  0  0  0  0  0  0
   16.7896   11.0855    0.0000 H   0  0  0  0  0  0  0  0  0  0  0  0
   16.3061    9.5248    0.0000 H   0  0  0  0  0  0  0  0  0  0  0  0
   14.5424   13.5204    0.0000 H   0  0  0  0  0  0  0  0  0  0  0  0
   13.7125   11.9407    0.0000 H   0  0  0  0  0  0  0  0  0  0  0  0
   17.7797   12.4317    0.0000 H   0  0  0  0  0  0  0  0  0  0  0  0
   17.3260   16.9088    0.0000 H   0  0  0  0  0  0  0  0  0  0  0  0
   14.7412   16.6468    0.0000 H   0  0  0  0  0  0  0  0  0  0  0  0
   13.6756   14.2773    0.0000 H   0  0  0  0  0  0  0  0  0  0  0  0
   11.5078   10.5829    0.0000 H   0  0  0  0  0  0  0  0  0  0  0  0
   10.5348   10.4126    0.0000 H   0  0  0  0  0  0  0  0  0  0  0  0
    9.5133   11.6240    0.0000 H   0  0  0  0  0  0  0  0  0  0  0  0
    7.7898   11.1617    0.0000 H   0  0  0  0  0  0  0  0  0  0  0  0
    7.7279    9.3783    0.0000 H   0  0  0  0  0  0  0  0  0  0  0  0
    6.5013    9.5468    0.0000 H   0  0  0  0  0  0  0  0  0  0  0  0
    3.2585    6.4596    0.0000 H   0  0  0  0  0  0  0  0  0  0  0  0
    3.9381    7.5196    0.0000 H   0  0  0  0  0  0  0  0  0  0  0  0
    2.4046    5.1175    0.0000 H   0  0  0  0  0  0  0  0  0  0  0  0
    2.8699    6.1037    0.0000 H   0  0  0  0  0  0  0  0  0  0  0  0
    1.8520    3.2746    0.0000 H   0  0  0  0  0  0  0  0  0  0  0  0
    2.2047    4.6533    0.0000 H   0  0  0  0  0  0  0  0  0  0  0  0
    1.4966    2.3529    0.0000 H   0  0  0  0  0  0  0  0  0  0  0  0
    4.4015    9.6900    0.0000 H   0  0  0  0  0  0  0  0  0  0  0  0
    5.9308   10.2650    0.0000 H   0  0  0  0  0  0  0  0  0  0  0  0
    7.0782    9.1018    0.0000 H   0  0  0  0  0  0  0  0  0  0  0  0
    5.0936   10.3857    0.0000 H   0  0  0  0  0  0  0  0  0  0  0  0
    2.4459    8.2666    0.0000 H   0  0  0  0  0  0  0  0  0  0  0  0
   -0.0113   10.6350    0.0000 H   0  0  0  0  0  0  0  0  0  0  0  0
   -0.2234    9.1732    0.0000 H   0  0  0  0  0  0  0  0  0  0  0  0
    1.4671    8.2454    0.0000 H   0  0  0  0  0  0  0  0  0  0  0  0
   -0.2784   10.8587    0.0000 H   0  0  0  0  0  0  0  0  0  0  0  0
    2.1688   13.2064    0.0000 H   0  0  0  0  0  0  0  0  0  0  0  0
    2.2957   15.1999    0.0000 H   0  0  0  0  0  0  0  0  0  0  0  0
    0.6052   16.1277    0.0000 H   0  0  0  0  0  0  0  0  0  0  0  0
   -0.5948   14.8070    0.0000 H   0  0  0  0  0  0  0  0  0  0  0  0
   -3.2994   13.1498    0.0000 H   0  0  0  0  0  0  0  0  0  0  0  0
  1  2  1  0
  2  3  1  0
  3  4  2  0
  4  5  1  0
  5  6  2  0
  6  7  1  0
  7  8  2  0
  7  9  1  0
  9 10  1  0
 10 11  1  0
 11 12  2  0
  9 13  1  0
 13 14  1  0
 14 15  2  0
 15 16  1  0
 16 17  2  0
 17 18  1  0
 16 19  1  0
 14 20  1  0
 20 21  1  0
 21 22  2  0
 22 23  1  0
 23 24  2  0
 24 25  1  0
 25 26  2  0
 25 27  1  0
  1 28  2  0
  1 29  1  0
 29 30  1  0
 30 31  1  0
 31 32  1  0
 32 33  2  0
 32 34  1  0
 34 35  1  0
 35 36  1  0
 36 37  1  0
 37 38  1  0
 38 39  1  0
 39 40  1  0
 40 41  2  3
 40 42  1  0
 35 43  1  0
 43 44  2  0
 43 45  1  0
 45 46  1  0
 46 47  1  0
 47 48  1  0
 48 49  1  0
 49 50  1  0
 50 51  1  0
 51 52  2  3
 51 53  1  0
 46 54  1  0
 54 55  2  0
 54 56  1  0
 56 57  1  0
 57 58  1  0
 58 59  2  0
 58 60  1  0
 60 61  1  0
 61 62  1  0
 62 63  1  0
 61 64  1  0
 64 65  2  0
 64 66  1  0
 66 67  1  0
 67 68  1  0
 68 69  1  0
 69 70  1  0
 70 71  1  0
 71 72  1  0
 72 73  2  3
 72 74  1  0
 67 75  1  0
 75 76  2  0
 75 77  1  0
 77 78  1  0
 78 79  1  0
 79 80  1  0
 80 81  1  0
 81 82  1  0
 82 83  2  0
 82 84  1  0
 84 85  1  0
 85 86  1  0
 86 87  1  0
 85 88  1  0
 88 89  2  0
 88 90  1  0
 90 91  1  0
 91 92  1  0
 92 93  2  0
 92 94  1  0
 94 95  1  0
 95 96  1  0
 95 97  1  0
 97 98  2  0
 97 99  1  0
100 99  1  6
100101  1  0
101102  1  0
102103  1  0
103104  1  0
104105  1  0
105106  1  0
106107  1  0
100108  1  0
100109  1  0
109110  2  0
109111  1  0
111112  1  0
112113  1  0
113114  1  0
114115  1  0
115116  1  0
116117  1  0
117118  2  3
117119  1  0
112120  1  0
120121  2  0
120122  1  0
122123  1  0
123124  1  0
124125  1  0
125126  1  0
126127  1  0
127128  1  0
128129  2  3
128130  1  0
123131  1  0
131132  2  0
131133  1  0
133134  1  0
134135  1  0
135136  1  0
136137  1  0
137138  1  0
138139  1  0
139140  2  3
139141  1  0
134142  1  0
142143  2  0
142144  1  0
144145  1  0
145146  1  0
146147  1  0
147148  1  0
148149  1  0
149150  1  0
150151  2  3
150152  1  0
145153  1  0
153154  2  0
153155  1  0
155156  1  0
156157  1  0
157158  1  0
158159  1  0
159160  1  0
160161  1  0
161162  2  3
161163  1  0
156164  1  0
164165  2  0
164166  1  0
166167  1  0
167168  1  0
167169  1  0
169170  2  0
169171  1  0
171172  1  0
172173  1  0
173174  1  0
174175  1  0
175176  1  0
172177  1  0
172178  1  1
178179  2  0
178180  1  0
180181  1  0
181182  1  0
181183  1  0
183184  2  0
183185  1  0
185186  1  0
186187  1  0
186188  1  0
188189  2  0
188190  1  0
  8  3  1  0
 81 77  1  0
 11  6  1  0
107176  2  0
 18 13  2  0
 22  9  1  0
 26 21  1  0
  2191  1  0
  4192  1  0
  5193  1  0
  8194  1  0
 15195  1  0
 17196  1  0
 18197  1  0
 19198  1  0
 23199  1  0
 24200  1  0
 26201  1  0
 27202  1  0
 29203  1  0
 30204  1  0
 30205  1  0
 31206  1  0
 31207  1  0
 34208  1  0
 35209  1  1
 36210  1  0
 36211  1  0
 37212  1  0
 37213  1  0
 38214  1  0
 38215  1  0
 39216  1  0
 41217  1  0
 42218  1  0
 42219  1  0
 45220  1  0
 46221  1  6
 47222  1  0
 47223  1  0
 48224  1  0
 48225  1  0
 49226  1  0
 49227  1  0
 50228  1  0
 52229  1  0
 53230  1  0
 53231  1  0
 56232  1  0
 57233  1  0
 57234  1  0
 60235  1  0
 61236  1  1
 62237  1  0
 62238  1  0
 63239  1  0
 66240  1  0
 67241  1  1
 68242  1  0
 68243  1  0
 69244  1  0
 69245  1  0
 70246  1  0
 70247  1  0
 71248  1  0
 73249  1  0
 74250  1  0
 74251  1  0
 78252  1  0
 78253  1  0
 79254  1  0
 79255  1  0
 80256  1  0
 80257  1  0
 81258  1  0
 84259  1  0
 85260  1  6
 86261  1  0
 86262  1  0
 87263  1  0
 90264  1  0
 91265  1  0
 91266  1  0
 94267  1  0
 95268  1  1
 96269  1  0
 96270  1  0
 96271  1  0
 99272  1  0
101273  1  0
101274  1  0
102275  1  0
102276  1  0
103277  1  0
103278  1  0
104279  1  0
104280  1  0
105281  1  0
105282  1  0
106283  1  0
106284  1  0
107285  1  0
108286  1  0
108287  1  0
108288  1  0
111289  1  0
112290  1  6
113291  1  0
113292  1  0
114293  1  0
114294  1  0
115295  1  0
115296  1  0
116297  1  0
118298  1  0
119299  1  0
119300  1  0
122301  1  0
123302  1  6
124303  1  0
124304  1  0
125305  1  0
125306  1  0
126307  1  0
126308  1  0
127309  1  0
129310  1  0
130311  1  0
130312  1  0
133313  1  0
134314  1  6
135315  1  0
135316  1  0
136317  1  0
136318  1  0
137319  1  0
137320  1  0
138321  1  0
140322  1  0
141323  1  0
141324  1  0
144325  1  0
145326  1  6
146327  1  0
146328  1  0
147329  1  0
147330  1  0
148331  1  0
148332  1  0
149333  1  0
151334  1  0
152335  1  0
152336  1  0
155337  1  0
156338  1  6
157339  1  0
157340  1  0
158341  1  0
158342  1  0
159343  1  0
159344  1  0
160345  1  0
162346  1  0
163347  1  0
163348  1  0
166349  1  0
167350  1  6
168351  1  0
168352  1  0
168353  1  0
171354  1  0
173355  1  0
173356  1  0
174357  1  0
174358  1  0
175359  1  0
175360  1  0
176361  1  0
177362  1  0
177363  1  0
177364  1  0
180365  1  0
181366  1  1
182367  1  0
182368  1  0
182369  1  0
185370  1  0
186371  1  6
187372  1  0
187373  1  0
187374  1  0
190375  1  0
M  END
