
     RDKit          2D

427428  0  0  0  0  0  0  0  0999 V2000
   38.6687   -6.4179    0.0000 N   0  0  0  0  0  0  0  0  0  0  0  0
   37.4200   -5.5868    0.0000 C   0  0  0  0  0  0  0  0  0  0  0  0
   37.5153   -4.0898    0.0000 C   0  0  0  0  0  0  0  0  0  0  0  0
   36.2665   -3.2588    0.0000 C   0  0  0  0  0  0  0  0  0  0  0  0
   34.9225   -3.9247    0.0000 O   0  0  0  0  0  0  0  0  0  0  0  0
   36.3619   -1.7618    0.0000 N   0  0  0  0  0  0  0  0  0  0  0  0
   35.1131   -0.9308    0.0000 C   0  0  0  0  0  0  0  0  0  0  0  0
   36.1484    0.1547    0.0000 C   0  0  0  0  0  0  0  0  0  0  0  0
   36.7500    1.5288    0.0000 O   0  0  0  0  0  0  0  0  0  0  0  0
   37.6061   -0.1992    0.0000 C   0  0  0  0  0  0  0  0  0  0  0  0
   33.6555   -0.5770    0.0000 C   0  0  0  0  0  0  0  0  0  0  0  0
   33.4116    0.9031    0.0000 O   0  0  0  0  0  0  0  0  0  0  0  0
   32.6202   -1.6624    0.0000 N   0  0  0  0  0  0  0  0  0  0  0  0
   31.1625   -1.3086    0.0000 C   0  0  0  0  0  0  0  0  0  0  0  0
   31.0672   -2.8056    0.0000 C   0  0  0  0  0  0  0  0  0  0  0  0
   29.6520   -3.3027    0.0000 C   0  0  0  0  0  0  0  0  0  0  0  0
   31.4896   -4.2449    0.0000 C   0  0  0  0  0  0  0  0  0  0  0  0
   30.4543   -5.3303    0.0000 C   0  0  0  0  0  0  0  0  0  0  0  0
   29.9138   -0.4776    0.0000 C   0  0  0  0  0  0  0  0  0  0  0  0
   28.5697   -1.1435    0.0000 O   0  0  0  0  0  0  0  0  0  0  0  0
   30.0091    1.0194    0.0000 N   0  0  0  0  0  0  0  0  0  0  0  0
   28.7604    1.8505    0.0000 C   0  0  0  0  0  0  0  0  0  0  0  0
   29.7956    2.9359    0.0000 C   0  0  0  0  0  0  0  0  0  0  0  0
   31.2533    2.5821    0.0000 C   0  0  0  0  0  0  0  0  0  0  0  0
   32.2886    3.6676    0.0000 C   0  0  0  0  0  0  0  0  0  0  0  0
   32.5020    1.7510    0.0000 C   0  0  0  0  0  0  0  0  0  0  0  0
   27.3027    2.2043    0.0000 C   0  0  0  0  0  0  0  0  0  0  0  0
   27.0589    3.6843    0.0000 O   0  0  0  0  0  0  0  0  0  0  0  0
   26.2674    1.1188    0.0000 N   0  0  0  0  0  0  0  0  0  0  0  0
   24.8098    1.4726    0.0000 C   0  0  0  0  0  0  0  0  0  0  0  0
   25.4113    2.8467    0.0000 C   0  0  0  0  0  0  0  0  0  0  0  0
   24.5221    4.0547    0.0000 C   0  0  0  0  0  0  0  0  0  0  0  0
   25.1237    5.4288    0.0000 C   0  0  0  0  0  0  0  0  0  0  0  0
   24.2345    6.6369    0.0000 C   0  0  0  0  0  0  0  0  0  0  0  0
   24.8361    8.0109    0.0000 N   0  0  0  0  0  0  0  0  0  0  0  0
   23.3190    1.3066    0.0000 C   0  0  0  0  0  0  0  0  0  0  0  0
   22.5837    2.6140    0.0000 O   0  0  0  0  0  0  0  0  0  0  0  0
   22.7174   -0.0675    0.0000 N   0  0  0  0  0  0  0  0  0  0  0  0
   21.2266   -0.2336    0.0000 C   0  0  0  0  0  0  0  0  0  0  0  0
   21.3220    1.2634    0.0000 C   0  0  0  0  0  0  0  0  0  0  0  0
   19.8826   -0.8995    0.0000 C   0  0  0  0  0  0  0  0  0  0  0  0
   18.6338   -0.0685    0.0000 O   0  0  0  0  0  0  0  0  0  0  0  0
   19.7872   -2.3965    0.0000 N   0  0  0  0  0  0  0  0  0  0  0  0
   18.4431   -3.0624    0.0000 C   0  0  0  0  0  0  0  0  0  0  0  0
   19.3323   -4.2704    0.0000 C   0  0  0  0  0  0  0  0  0  0  0  0
   20.8323   -4.2873    0.0000 O   0  0  0  0  0  0  0  0  0  0  0  0
   16.9524   -3.2285    0.0000 C   0  0  0  0  0  0  0  0  0  0  0  0
   16.5228   -4.6656    0.0000 O   0  0  0  0  0  0  0  0  0  0  0  0
   16.0632   -2.0204    0.0000 N   0  0  0  0  0  0  0  0  0  0  0  0
   14.5724   -2.1865    0.0000 C   0  0  0  0  0  0  0  0  0  0  0  0
   14.9948   -3.6258    0.0000 C   0  0  0  0  0  0  0  0  0  0  0  0
   13.9595   -4.7113    0.0000 C   0  0  0  0  0  0  0  0  0  0  0  0
   13.1147   -1.8327    0.0000 C   0  0  0  0  0  0  0  0  0  0  0  0
   12.0794   -2.9181    0.0000 O   0  0  0  0  0  0  0  0  0  0  0  0
   12.6923   -0.3934    0.0000 N   0  0  0  0  0  0  0  0  0  0  0  0
   11.2346   -0.0395    0.0000 C   0  0  0  0  0  0  0  0  0  0  0  0
   11.8362    1.3345    0.0000 C   0  0  0  0  0  0  0  0  0  0  0  0
   13.3270    1.5006    0.0000 C   0  0  0  0  0  0  0  0  0  0  0  0
   13.9286    2.8747    0.0000 O   0  0  0  0  0  0  0  0  0  0  0  0
   14.3568    0.4100    0.0000 O   0  0  0  0  0  0  0  0  0  0  0  0
    9.7438   -0.2056    0.0000 C   0  0  0  0  0  0  0  0  0  0  0  0
    9.1423   -1.5797    0.0000 O   0  0  0  0  0  0  0  0  0  0  0  0
    8.8546    1.0024    0.0000 N   0  0  0  0  0  0  0  0  0  0  0  0
    7.3639    0.8363    0.0000 C   0  0  0  0  0  0  0  0  0  0  0  0
    7.4592    2.3333    0.0000 C   0  0  0  0  0  0  0  0  0  0  0  0
    8.8033    2.9992    0.0000 C   0  0  0  0  0  0  0  0  0  0  0  0
   10.0520    2.1682    0.0000 C   0  0  0  0  0  0  0  0  0  0  0  0
   11.3961    2.8341    0.0000 C   0  0  0  0  0  0  0  0  0  0  0  0
   11.4914    4.3311    0.0000 C   0  0  0  0  0  0  0  0  0  0  0  0
   12.8355    4.9970    0.0000 O   0  0  0  0  0  0  0  0  0  0  0  0
   10.2427    5.1621    0.0000 C   0  0  0  0  0  0  0  0  0  0  0  0
    8.8986    4.4962    0.0000 C   0  0  0  0  0  0  0  0  0  0  0  0
    6.0198    0.1704    0.0000 C   0  0  0  0  0  0  0  0  0  0  0  0
    4.7710    1.0015    0.0000 O   0  0  0  0  0  0  0  0  0  0  0  0
    5.9245   -1.3265    0.0000 N   0  0  0  0  0  0  0  0  0  0  0  0
    4.5804   -1.9925    0.0000 C   0  0  0  0  0  0  0  0  0  0  0  0
    5.4696   -3.2005    0.0000 C   0  0  0  0  0  0  0  0  0  0  0  0
    6.9290   -2.8539    0.0000 C   0  0  0  0  0  0  0  0  0  0  0  0
    5.8920   -4.6398    0.0000 C   0  0  0  0  0  0  0  0  0  0  0  0
    7.3497   -4.9936    0.0000 C   0  0  0  0  0  0  0  0  0  0  0  0
    3.0896   -2.1585    0.0000 C   0  0  0  0  0  0  0  0  0  0  0  0
    2.6600   -3.5957    0.0000 O   0  0  0  0  0  0  0  0  0  0  0  0
    2.2004   -0.9505    0.0000 N   0  0  0  0  0  0  0  0  0  0  0  0
    0.7096   -1.1166    0.0000 C   0  0  0  0  0  0  0  0  0  0  0  0
    1.1320   -2.5559    0.0000 C   0  0  0  0  0  0  0  0  0  0  0  0
    0.0968   -3.6413    0.0000 C   0  0  0  0  0  0  0  0  0  0  0  0
    0.5192   -5.0806    0.0000 C   0  0  0  0  0  0  0  0  0  0  0  0
   -0.5161   -6.1661    0.0000 N   0  0  0  0  0  0  0  0  0  0  0  0
   -0.0937   -7.6054    0.0000 C   0  0  0  0  0  0  0  0  0  0  0  0
   -1.1289   -8.6909    0.0000 N   0  0  0  0  0  0  0  0  0  0  0  0
    1.3640   -7.9592    0.0000 N   0  0  0  0  0  0  0  0  0  0  0  0
   -0.7481   -0.7628    0.0000 C   0  0  0  0  0  0  0  0  0  0  0  0
   -1.6433   -1.9663    0.0000 O   0  0  0  0  0  0  0  0  0  0  0  0
   -1.1705    0.6765    0.0000 N   0  0  0  0  0  0  0  0  0  0  0  0
   -2.6281    1.0304    0.0000 C   0  0  0  0  0  0  0  0  0  0  0  0
   -2.7235   -0.4666    0.0000 C   0  0  0  0  0  0  0  0  0  0  0  0
   -4.0675   -1.1325    0.0000 C   0  0  0  0  0  0  0  0  0  0  0  0
   -4.1629   -2.6295    0.0000 C   0  0  0  0  0  0  0  0  0  0  0  0
   -5.5070   -3.2954    0.0000 C   0  0  0  0  0  0  0  0  0  0  0  0
   -5.6023   -4.7924    0.0000 N   0  0  0  0  0  0  0  0  0  0  0  0
   -3.8769    1.8614    0.0000 C   0  0  0  0  0  0  0  0  0  0  0  0
   -5.2210    1.1955    0.0000 O   0  0  0  0  0  0  0  0  0  0  0  0
   -3.7816    3.3584    0.0000 N   0  0  0  0  0  0  0  0  0  0  0  0
   -5.0303    4.1894    0.0000 C   0  0  0  0  0  0  0  0  0  0  0  0
   -3.9950    5.2749    0.0000 C   0  0  0  0  0  0  0  0  0  0  0  0
   -2.5374    4.9211    0.0000 C   0  0  0  0  0  0  0  0  0  0  0  0
   -1.5021    6.0065    0.0000 C   0  0  0  0  0  0  0  0  0  0  0  0
   -1.2886    4.0900    0.0000 C   0  0  0  0  0  0  0  0  0  0  0  0
   -6.4880    4.5433    0.0000 C   0  0  0  0  0  0  0  0  0  0  0  0
   -6.7318    6.0233    0.0000 O   0  0  0  0  0  0  0  0  0  0  0  0
   -7.5232    3.4578    0.0000 N   0  0  0  0  0  0  0  0  0  0  0  0
   -8.9809    3.8116    0.0000 C   0  0  0  0  0  0  0  0  0  0  0  0
   -8.6506    2.3484    0.0000 C   0  0  0  0  0  0  0  0  0  0  0  0
   -8.6032    0.8492    0.0000 C   0  0  0  0  0  0  0  0  0  0  0  0
   -8.8404   -0.6320    0.0000 C   0  0  0  0  0  0  0  0  0  0  0  0
   -9.3536   -2.0414    0.0000 C   0  0  0  0  0  0  0  0  0  0  0  0
  -10.1243   -3.3283    0.0000 C   0  0  0  0  0  0  0  0  0  0  0  0
  -11.1246   -4.4461    0.0000 C   0  0  0  0  0  0  0  0  0  0  0  0
  -12.3184   -5.3543    0.0000 C   0  0  0  0  0  0  0  0  0  0  0  0
   -8.0166    4.9606    0.0000 C   0  0  0  0  0  0  0  0  0  0  0  0
   -9.5821    5.1859    0.0000 C   0  0  0  0  0  0  0  0  0  0  0  0
   -8.3699    6.0693    0.0000 O   0  0  0  0  0  0  0  0  0  0  0  0
  -10.4326    6.4215    0.0000 N   0  0  0  0  0  0  0  0  0  0  0  0
  -11.5015    7.4738    0.0000 C   0  0  0  0  0  0  0  0  0  0  0  0
  -11.3114    8.9617    0.0000 C   0  0  0  0  0  0  0  0  0  0  0  0
   -9.9278    9.5411    0.0000 C   0  0  0  0  0  0  0  0  0  0  0  0
   -9.7377   11.0290    0.0000 C   0  0  0  0  0  0  0  0  0  0  0  0
   -8.3541   11.6083    0.0000 N   0  0  0  0  0  0  0  0  0  0  0  0
   -8.1640   13.0962    0.0000 C   0  0  0  0  0  0  0  0  0  0  0  0
   -6.7804   13.6756    0.0000 N   0  0  0  0  0  0  0  0  0  0  0  0
   -9.3575   14.0048    0.0000 N   0  0  0  0  0  0  0  0  0  0  0  0
  -12.7502    8.3049    0.0000 C   0  0  0  0  0  0  0  0  0  0  0  0
  -12.2081    9.7035    0.0000 O   0  0  0  0  0  0  0  0  0  0  0  0
  -14.1337    8.8846    0.0000 N   0  0  0  0  0  0  0  0  0  0  0  0
  -15.6018    9.1920    0.0000 C   0  0  0  0  0  0  0  0  0  0  0  0
  -16.2463   10.5464    0.0000 C   0  0  0  0  0  0  0  0  0  0  0  0
  -15.3956   11.7818    0.0000 C   0  0  0  0  0  0  0  0  0  0  0  0
  -16.0401   13.1363    0.0000 C   0  0  0  0  0  0  0  0  0  0  0  0
  -15.1894   14.3717    0.0000 O   0  0  0  0  0  0  0  0  0  0  0  0
  -17.5354   13.2554    0.0000 O   0  0  0  0  0  0  0  0  0  0  0  0
  -17.1016    9.2160    0.0000 C   0  0  0  0  0  0  0  0  0  0  0  0
  -17.4017   10.6856    0.0000 O   0  0  0  0  0  0  0  0  0  0  0  0
  -18.5789    8.9557    0.0000 N   0  0  0  0  0  0  0  0  0  0  0  0
  -19.9802    8.4205    0.0000 C   0  0  0  0  0  0  0  0  0  0  0  0
  -21.2547    9.2115    0.0000 C   0  0  0  0  0  0  0  0  0  0  0  0
  -21.2069   10.7108    0.0000 C   0  0  0  0  0  0  0  0  0  0  0  0
  -22.4814   11.5018    0.0000 C   0  0  0  0  0  0  0  0  0  0  0  0
  -22.4336   13.0010    0.0000 N   0  0  0  0  0  0  0  0  0  0  0  0
  -23.8036   10.7935    0.0000 O   0  0  0  0  0  0  0  0  0  0  0  0
  -21.2549    7.6299    0.0000 C   0  0  0  0  0  0  0  0  0  0  0  0
  -22.3019    8.7040    0.0000 O   0  0  0  0  0  0  0  0  0  0  0  0
  -22.3569    6.6122    0.0000 N   0  0  0  0  0  0  0  0  0  0  0  0
  -23.2464    5.4045    0.0000 C   0  0  0  0  0  0  0  0  0  0  0  0
  -24.7462    5.3808    0.0000 C   0  0  0  0  0  0  0  0  0  0  0  0
  -25.5166    6.6679    0.0000 C   0  0  0  0  0  0  0  0  0  0  0  0
  -27.0164    6.6443    0.0000 C   0  0  0  0  0  0  0  0  0  0  0  0
  -27.7867    7.9314    0.0000 N   0  0  0  0  0  0  0  0  0  0  0  0
  -27.7458    5.3336    0.0000 O   0  0  0  0  0  0  0  0  0  0  0  0
  -23.8913    4.0501    0.0000 C   0  0  0  0  0  0  0  0  0  0  0  0
  -25.3528    4.3877    0.0000 O   0  0  0  0  0  0  0  0  0  0  0  0
  -24.2682    2.5983    0.0000 N   0  0  0  0  0  0  0  0  0  0  0  0
  -24.3635    1.1013    0.0000 C   0  0  0  0  0  0  0  0  0  0  0  0
  -25.6125    0.2706    0.0000 C   0  0  0  0  0  0  0  0  0  0  0  0
  -26.9564    0.9369    0.0000 C   0  0  0  0  0  0  0  0  0  0  0  0
  -28.2053    0.1061    0.0000 C   0  0  0  0  0  0  0  0  0  0  0  0
  -29.5492    0.7724    0.0000 N   0  0  0  0  0  0  0  0  0  0  0  0
  -30.7982   -0.0583    0.0000 C   0  0  0  0  0  0  0  0  0  0  0  0
  -32.1421    0.6080    0.0000 N   0  0  0  0  0  0  0  0  0  0  0  0
  -30.7033   -1.5553    0.0000 N   0  0  0  0  0  0  0  0  0  0  0  0
  -24.1738   -0.3867    0.0000 C   0  0  0  0  0  0  0  0  0  0  0  0
  -25.5858   -0.8928    0.0000 O   0  0  0  0  0  0  0  0  0  0  0  0
  -23.7059   -1.8118    0.0000 N   0  0  0  0  0  0  0  0  0  0  0  0
  -22.9768   -3.1227    0.0000 C   0  0  0  0  0  0  0  0  0  0  0  0
  -23.5784   -4.4968    0.0000 C   0  0  0  0  0  0  0  0  0  0  0  0
  -22.0128   -4.2719    0.0000 C   0  0  0  0  0  0  0  0  0  0  0  0
  -22.9270   -5.4611    0.0000 O   0  0  0  0  0  0  0  0  0  0  0  0
  -20.8487   -5.2179    0.0000 N   0  0  0  0  0  0  0  0  0  0  0  0
  -19.5266   -5.9264    0.0000 C   0  0  0  0  0  0  0  0  0  0  0  0
  -18.0943   -6.3720    0.0000 C   0  0  0  0  0  0  0  0  0  0  0  0
  -16.6036   -6.5385    0.0000 C   0  0  0  0  0  0  0  0  0  0  0  0
  -15.1083   -6.4198    0.0000 C   0  0  0  0  0  0  0  0  0  0  0  0
  -13.6625   -6.0203    0.0000 C   0  0  0  0  0  0  0  0  0  0  0  0
  -20.7486   -6.7964    0.0000 C   0  0  0  0  0  0  0  0  0  0  0  0
  -19.2898   -7.4076    0.0000 C   0  0  0  0  0  0  0  0  0  0  0  0
  -18.0599   -8.2663    0.0000 O   0  0  0  0  0  0  0  0  0  0  0  0
  -20.4541   -8.3533    0.0000 N   0  0  0  0  0  0  0  0  0  0  0  0
  -20.2173   -9.8345    0.0000 C   0  0  0  0  0  0  0  0  0  0  0  0
  -19.4882  -11.1454    0.0000 C   0  0  0  0  0  0  0  0  0  0  0  0
  -20.2589  -12.4322    0.0000 C   0  0  0  0  0  0  0  0  0  0  0  0
  -19.5298  -13.7431    0.0000 C   0  0  0  0  0  0  0  0  0  0  0  0
  -20.0223  -14.8538    0.0000 O   0  0  0  0  0  0  0  0  0  0  0  0
  -18.0300  -13.7671    0.0000 O   0  0  0  0  0  0  0  0  0  0  0  0
  -21.3817  -10.7802    0.0000 C   0  0  0  0  0  0  0  0  0  0  0  0
  -22.7828  -10.2447    0.0000 O   0  0  0  0  0  0  0  0  0  0  0  0
  -21.1449  -12.2614    0.0000 N   0  0  0  0  0  0  0  0  0  0  0  0
  -22.3092  -13.2070    0.0000 C   0  0  0  0  0  0  0  0  0  0  0  0
  -23.7268  -13.6975    0.0000 C   0  0  0  0  0  0  0  0  0  0  0  0
  -24.8603  -12.7150    0.0000 C   0  0  0  0  0  0  0  0  0  0  0  0
  -26.2778  -13.2054    0.0000 C   0  0  0  0  0  0  0  0  0  0  0  0
  -25.5894  -11.4041    0.0000 C   0  0  0  0  0  0  0  0  0  0  0  0
  -22.0724  -14.6882    0.0000 C   0  0  0  0  0  0  0  0  0  0  0  0
  -20.9988  -15.2571    0.0000 O   0  0  0  0  0  0  0  0  0  0  0  0
  -23.1128  -15.7688    0.0000 O   0  0  0  0  0  0  0  0  0  0  0  0
   38.5734   -7.9148    0.0000 H   0  0  0  0  0  0  0  0  0  0  0  0
   40.0128   -5.7519    0.0000 H   0  0  0  0  0  0  0  0  0  0  0  0
   36.8184   -6.9609    0.0000 H   0  0  0  0  0  0  0  0  0  0  0  0
   35.9623   -5.2330    0.0000 H   0  0  0  0  0  0  0  0  0  0  0  0
   38.9730   -4.4437    0.0000 H   0  0  0  0  0  0  0  0  0  0  0  0
   38.1169   -2.7158    0.0000 H   0  0  0  0  0  0  0  0  0  0  0  0
   37.1140   -1.4976    0.0000 H   0  0  0  0  0  0  0  0  0  0  0  0
   34.5116   -2.3049    0.0000 H   0  0  0  0  0  0  0  0  0  0  0  0
   34.8996    0.9857    0.0000 H   0  0  0  0  0  0  0  0  0  0  0  0
   38.2094    1.8753    0.0000 H   0  0  0  0  0  0  0  0  0  0  0  0
   38.7659    0.7520    0.0000 H   0  0  0  0  0  0  0  0  0  0  0  0
   38.8548   -1.0302    0.0000 H   0  0  0  0  0  0  0  0  0  0  0  0
   37.5653   -1.0839    0.0000 H   0  0  0  0  0  0  0  0  0  0  0  0
   33.3783   -2.9567    0.0000 H   0  0  0  0  0  0  0  0  0  0  0  0
   31.5921    0.1286    0.0000 H   0  0  0  0  0  0  0  0  0  0  0  0
   32.5671   -2.8225    0.0000 H   0  0  0  0  0  0  0  0  0  0  0  0
   29.4249   -4.9531    0.0000 H   0  0  0  0  0  0  0  0  0  0  0  0
   28.2323   -3.6376    0.0000 H   0  0  0  0  0  0  0  0  0  0  0  0
   29.3007   -2.0322    0.0000 H   0  0  0  0  0  0  0  0  0  0  0  0
   32.3788   -5.4529    0.0000 H   0  0  0  0  0  0  0  0  0  0  0  0
   32.9048   -3.7477    0.0000 H   0  0  0  0  0  0  0  0  0  0  0  0
   30.8768   -6.7696    0.0000 H   0  0  0  0  0  0  0  0  0  0  0  0
   29.1103   -5.9963    0.0000 H   0  0  0  0  0  0  0  0  0  0  0  0
   29.2993   -4.3734    0.0000 H   0  0  0  0  0  0  0  0  0  0  0  0
   31.4243    1.5165    0.0000 H   0  0  0  0  0  0  0  0  0  0  0  0
   28.1588    0.4764    0.0000 H   0  0  0  0  0  0  0  0  0  0  0  0
   30.2252    4.3731    0.0000 H   0  0  0  0  0  0  0  0  0  0  0  0
   28.5469    3.7670    0.0000 H   0  0  0  0  0  0  0  0  0  0  0  0
   31.1842    1.0837    0.0000 H   0  0  0  0  0  0  0  0  0  0  0  0
   33.7785    3.4941    0.0000 H   0  0  0  0  0  0  0  0  0  0  0  0
   32.8901    5.0416    0.0000 H   0  0  0  0  0  0  0  0  0  0  0  0
   31.1504    4.6446    0.0000 H   0  0  0  0  0  0  0  0  0  0  0  0
   33.9173    2.2482    0.0000 H   0  0  0  0  0  0  0  0  0  0  0  0
   33.5319    0.6604    0.0000 H   0  0  0  0  0  0  0  0  0  0  0  0
   31.3422    0.7999    0.0000 H   0  0  0  0  0  0  0  0  0  0  0  0
   26.6898   -0.3205    0.0000 H   0  0  0  0  0  0  0  0  0  0  0  0
   24.7144   -0.0243    0.0000 H   0  0  0  0  0  0  0  0  0  0  0  0
   26.4466    3.9322    0.0000 H   0  0  0  0  0  0  0  0  0  0  0  0
   26.8241    2.3425    0.0000 H   0  0  0  0  0  0  0  0  0  0  0  0
   23.1814    4.7274    0.0000 H   0  0  0  0  0  0  0  0  0  0  0  0
   23.4869    2.9693    0.0000 H   0  0  0  0  0  0  0  0  0  0  0  0
   26.2836    6.3800    0.0000 H   0  0  0  0  0  0  0  0  0  0  0  0
   26.4644    4.7562    0.0000 H   0  0  0  0  0  0  0  0  0  0  0  0
   22.9858    7.4679    0.0000 H   0  0  0  0  0  0  0  0  0  0  0  0
   23.0746    5.6857    0.0000 H   0  0  0  0  0  0  0  0  0  0  0  0
   23.9469    9.2190    0.0000 H   0  0  0  0  0  0  0  0  0  0  0  0
   25.8713    9.0964    0.0000 H   0  0  0  0  0  0  0  0  0  0  0  0
   26.1768    7.3383    0.0000 H   0  0  0  0  0  0  0  0  0  0  0  0
   23.6066   -1.2755    0.0000 H   0  0  0  0  0  0  0  0  0  0  0  0
   21.6490   -1.6729    0.0000 H   0  0  0  0  0  0  0  0  0  0  0  0
   22.5748    2.0882    0.0000 H   0  0  0  0  0  0  0  0  0  0  0  0
   20.8995    2.7027    0.0000 H   0  0  0  0  0  0  0  0  0  0  0  0
   19.8312    1.0973    0.0000 H   0  0  0  0  0  0  0  0  0  0  0  0
   21.1280   -3.0691    0.0000 H   0  0  0  0  0  0  0  0  0  0  0  0
   18.0207   -1.6231    0.0000 H   0  0  0  0  0  0  0  0  0  0  0  0
   19.7548   -5.7097    0.0000 H   0  0  0  0  0  0  0  0  0  0  0  0
   17.9883   -4.9363    0.0000 H   0  0  0  0  0  0  0  0  0  0  0  0
   21.7123   -5.3124    0.0000 H   0  0  0  0  0  0  0  0  0  0  0  0
   16.6647   -0.6463    0.0000 H   0  0  0  0  0  0  0  0  0  0  0  0
   14.6677   -0.6895    0.0000 H   0  0  0  0  0  0  0  0  0  0  0  0
   15.7301   -4.9332    0.0000 H   0  0  0  0  0  0  0  0  0  0  0  0
   16.4601   -3.3049    0.0000 H   0  0  0  0  0  0  0  0  0  0  0  0
   14.3819   -6.1506    0.0000 H   0  0  0  0  0  0  0  0  0  0  0  0
   12.6155   -5.3772    0.0000 H   0  0  0  0  0  0  0  0  0  0  0  0
   13.0703   -3.5032    0.0000 H   0  0  0  0  0  0  0  0  0  0  0  0
   13.8522    0.5578    0.0000 H   0  0  0  0  0  0  0  0  0  0  0  0
   11.1393   -1.5365    0.0000 H   0  0  0  0  0  0  0  0  0  0  0  0
   12.2909    2.7640    0.0000 H   0  0  0  0  0  0  0  0  0  0  0  0
   10.3362    1.3251    0.0000 H   0  0  0  0  0  0  0  0  0  0  0  0
    9.7708    2.1901    0.0000 H   0  0  0  0  0  0  0  0  0  0  0  0
    7.7863   -0.6029    0.0000 H   0  0  0  0  0  0  0  0  0  0  0  0
    7.0368    3.7726    0.0000 H   0  0  0  0  0  0  0  0  0  0  0  0
    5.9684    2.1673    0.0000 H   0  0  0  0  0  0  0  0  0  0  0  0
    9.9567    0.6712    0.0000 H   0  0  0  0  0  0  0  0  0  0  0  0
   12.6448    2.0031    0.0000 H   0  0  0  0  0  0  0  0  0  0  0  0
   12.9308    6.4940    0.0000 H   0  0  0  0  0  0  0  0  0  0  0  0
   10.3380    6.6591    0.0000 H   0  0  0  0  0  0  0  0  0  0  0  0
    7.6499    5.3273    0.0000 H   0  0  0  0  0  0  0  0  0  0  0  0
    7.2652   -1.9992    0.0000 H   0  0  0  0  0  0  0  0  0  0  0  0
    4.1580   -0.5532    0.0000 H   0  0  0  0  0  0  0  0  0  0  0  0
    4.1255   -3.8664    0.0000 H   0  0  0  0  0  0  0  0  0  0  0  0
    8.0120   -4.1199    0.0000 H   0  0  0  0  0  0  0  0  0  0  0  0
    8.3044   -2.3685    0.0000 H   0  0  0  0  0  0  0  0  0  0  0  0
    7.0819   -1.5394    0.0000 H   0  0  0  0  0  0  0  0  0  0  0  0
    5.7967   -6.1368    0.0000 H   0  0  0  0  0  0  0  0  0  0  0  0
    4.4012   -4.8059    0.0000 H   0  0  0  0  0  0  0  0  0  0  0  0
    7.7721   -6.4329    0.0000 H   0  0  0  0  0  0  0  0  0  0  0  0
    8.8404   -4.8276    0.0000 H   0  0  0  0  0  0  0  0  0  0  0  0
    7.8044   -3.5642    0.0000 H   0  0  0  0  0  0  0  0  0  0  0  0
    2.8020    0.4236    0.0000 H   0  0  0  0  0  0  0  0  0  0  0  0
    0.8049    0.3804    0.0000 H   0  0  0  0  0  0  0  0  0  0  0  0
    2.0212   -3.7639    0.0000 H   0  0  0  0  0  0  0  0  0  0  0  0
    2.5973   -2.2350    0.0000 H   0  0  0  0  0  0  0  0  0  0  0  0
   -1.2473   -4.3073    0.0000 H   0  0  0  0  0  0  0  0  0  0  0  0
   -0.7924   -2.4333    0.0000 H   0  0  0  0  0  0  0  0  0  0  0  0
    1.4084   -6.2887    0.0000 H   0  0  0  0  0  0  0  0  0  0  0  0
    1.9344   -4.5835    0.0000 H   0  0  0  0  0  0  0  0  0  0  0  0
   -1.9738   -5.8123    0.0000 H   0  0  0  0  0  0  0  0  0  0  0  0
   -0.7065  -10.1302    0.0000 H   0  0  0  0  0  0  0  0  0  0  0  0
   -2.5866   -8.3370    0.0000 H   0  0  0  0  0  0  0  0  0  0  0  0
    1.7864   -9.3985    0.0000 H   0  0  0  0  0  0  0  0  0  0  0  0
    2.3993   -6.8738    0.0000 H   0  0  0  0  0  0  0  0  0  0  0  0
   -0.1352    1.7620    0.0000 H   0  0  0  0  0  0  0  0  0  0  0  0
   -2.1985    2.4675    0.0000 H   0  0  0  0  0  0  0  0  0  0  0  0
   -2.3011   -1.9059    0.0000 H   0  0  0  0  0  0  0  0  0  0  0  0
   -1.2368   -0.6662    0.0000 H   0  0  0  0  0  0  0  0  0  0  0  0
   -5.5675   -1.1156    0.0000 H   0  0  0  0  0  0  0  0  0  0  0  0
   -4.4900    0.3068    0.0000 H   0  0  0  0  0  0  0  0  0  0  0  0
   -3.5682   -4.0066    0.0000 H   0  0  0  0  0  0  0  0  0  0  0  0
   -2.6630   -2.6464    0.0000 H   0  0  0  0  0  0  0  0  0  0  0  0
   -6.9977   -3.4615    0.0000 H   0  0  0  0  0  0  0  0  0  0  0  0
   -6.1017   -1.9183    0.0000 H   0  0  0  0  0  0  0  0  0  0  0  0
   -6.9464   -5.4583    0.0000 H   0  0  0  0  0  0  0  0  0  0  0  0
   -5.1799   -6.2317    0.0000 H   0  0  0  0  0  0  0  0  0  0  0  0
   -4.1024   -4.8093    0.0000 H   0  0  0  0  0  0  0  0  0  0  0  0
   -2.3663    3.8555    0.0000 H   0  0  0  0  0  0  0  0  0  0  0  0
   -5.6319    2.8153    0.0000 H   0  0  0  0  0  0  0  0  0  0  0  0
   -3.5655    6.7121    0.0000 H   0  0  0  0  0  0  0  0  0  0  0  0
   -5.2438    6.1059    0.0000 H   0  0  0  0  0  0  0  0  0  0  0  0
   -2.6064    3.4227    0.0000 H   0  0  0  0  0  0  0  0  0  0  0  0
   -0.0122    5.8330    0.0000 H   0  0  0  0  0  0  0  0  0  0  0  0
   -0.9005    7.3806    0.0000 H   0  0  0  0  0  0  0  0  0  0  0  0
   -2.6402    6.9836    0.0000 H   0  0  0  0  0  0  0  0  0  0  0  0
    0.1266    4.5871    0.0000 H   0  0  0  0  0  0  0  0  0  0  0  0
   -0.3994    2.8820    0.0000 H   0  0  0  0  0  0  0  0  0  0  0  0
   -2.4485    3.1388    0.0000 H   0  0  0  0  0  0  0  0  0  0  0  0
   -6.7651    2.1635    0.0000 H   0  0  0  0  0  0  0  0  0  0  0  0
   -7.2921    2.9843    0.0000 H   0  0  0  0  0  0  0  0  0  0  0  0
   -7.2863    1.7251    0.0000 H   0  0  0  0  0  0  0  0  0  0  0  0
   -7.1489    1.2164    0.0000 H   0  0  0  0  0  0  0  0  0  0  0  0
   -7.2845    0.1343    0.0000 H   0  0  0  0  0  0  0  0  0  0  0  0
   -7.3644   -0.3647    0.0000 H   0  0  0  0  0  0  0  0  0  0  0  0
   -7.6808   -1.5834    0.0000 H   0  0  0  0  0  0  0  0  0  0  0  0
   -7.8537   -2.0583    0.0000 H   0  0  0  0  0  0  0  0  0  0  0  0
   -8.3951   -3.1952    0.0000 H   0  0  0  0  0  0  0  0  0  0  0  0
   -8.6547   -3.6287    0.0000 H   0  0  0  0  0  0  0  0  0  0  0  0
   -9.4014   -4.6426    0.0000 H   0  0  0  0  0  0  0  0  0  0  0  0
   -9.7384   -5.0192    0.0000 H   0  0  0  0  0  0  0  0  0  0  0  0
  -10.8409   -5.9190    0.0000 H   0  0  0  0  0  0  0  0  0  0  0  0
  -11.5277   -6.6290    0.0000 H   0  0  0  0  0  0  0  0  0  0  0  0
   -6.5202    5.0651    0.0000 H   0  0  0  0  0  0  0  0  0  0  0  0
   -7.5034    6.3700    0.0000 H   0  0  0  0  0  0  0  0  0  0  0  0
   -9.0954    6.0027    0.0000 H   0  0  0  0  0  0  0  0  0  0  0  0
   -9.1744    7.2382    0.0000 H   0  0  0  0  0  0  0  0  0  0  0  0
  -10.0347    7.7878    0.0000 H   0  0  0  0  0  0  0  0  0  0  0  0
  -11.6417   10.4249    0.0000 H   0  0  0  0  0  0  0  0  0  0  0  0
  -12.7824    9.2552    0.0000 H   0  0  0  0  0  0  0  0  0  0  0  0
   -8.4295    9.6123    0.0000 H   0  0  0  0  0  0  0  0  0  0  0  0
   -9.2533    8.2013    0.0000 H   0  0  0  0  0  0  0  0  0  0  0  0
  -10.0680   12.4922    0.0000 H   0  0  0  0  0  0  0  0  0  0  0  0
  -11.2335   11.1410    0.0000 H   0  0  0  0  0  0  0  0  0  0  0  0
   -7.1606   10.6998    0.0000 H   0  0  0  0  0  0  0  0  0  0  0  0
   -6.5903   15.1635    0.0000 H   0  0  0  0  0  0  0  0  0  0  0  0
   -5.5869   12.7670    0.0000 H   0  0  0  0  0  0  0  0  0  0  0  0
   -9.1674   15.4927    0.0000 H   0  0  0  0  0  0  0  0  0  0  0  0
  -10.7411   13.4255    0.0000 H   0  0  0  0  0  0  0  0  0  0  0  0
  -13.5168   10.2519    0.0000 H   0  0  0  0  0  0  0  0  0  0  0  0
  -14.5376   10.2491    0.0000 H   0  0  0  0  0  0  0  0  0  0  0  0
  -17.1790   11.7212    0.0000 H   0  0  0  0  0  0  0  0  0  0  0  0
  -17.6425    9.9981    0.0000 H   0  0  0  0  0  0  0  0  0  0  0  0
  -14.1736   12.6518    0.0000 H   0  0  0  0  0  0  0  0  0  0  0  0
  -14.1038   11.0194    0.0000 H   0  0  0  0  0  0  0  0  0  0  0  0
  -18.7992   10.4394    0.0000 H   0  0  0  0  0  0  0  0  0  0  0  0
  -19.6564    9.8852    0.0000 H   0  0  0  0  0  0  0  0  0  0  0  0
  -22.6744    9.6956    0.0000 H   0  0  0  0  0  0  0  0  0  0  0  0
  -22.1327    7.9954    0.0000 H   0  0  0  0  0  0  0  0  0  0  0  0
  -20.6492   12.1033    0.0000 H   0  0  0  0  0  0  0  0  0  0  0  0
  -19.7080   10.7678    0.0000 H   0  0  0  0  0  0  0  0  0  0  0  0
  -23.7081   13.7920    0.0000 H   0  0  0  0  0  0  0  0  0  0  0  0
  -21.1113   13.7093    0.0000 H   0  0  0  0  0  0  0  0  0  0  0  0
  -23.3444    7.7413    0.0000 H   0  0  0  0  0  0  0  0  0  0  0  0
  -23.7659    6.8116    0.0000 H   0  0  0  0  0  0  0  0  0  0  0  0
  -26.2023    5.0205    0.0000 H   0  0  0  0  0  0  0  0  0  0  0  0
  -24.8274    3.8830    0.0000 H   0  0  0  0  0  0  0  0  0  0  0  0
  -25.8002    8.1409    0.0000 H   0  0  0  0  0  0  0  0  0  0  0  0
  -24.2864    7.5262    0.0000 H   0  0  0  0  0  0  0  0  0  0  0  0
  -29.2865    7.9078    0.0000 H   0  0  0  0  0  0  0  0  0  0  0  0
  -27.0573    9.2421    0.0000 H   0  0  0  0  0  0  0  0  0  0  0  0
  -25.7093    3.0142    0.0000 H   0  0  0  0  0  0  0  0  0  0  0  0
  -25.5613    2.0042    0.0000 H   0  0  0  0  0  0  0  0  0  0  0  0
  -26.5020   -0.9372    0.0000 H   0  0  0  0  0  0  0  0  0  0  0  0
  -24.8710   -1.0333    0.0000 H   0  0  0  0  0  0  0  0  0  0  0  0
  -27.9914    2.0226    0.0000 H   0  0  0  0  0  0  0  0  0  0  0  0
  -26.3855    2.3240    0.0000 H   0  0  0  0  0  0  0  0  0  0  0  0
  -29.0949   -1.1016    0.0000 H   0  0  0  0  0  0  0  0  0  0  0  0
  -27.3104   -1.0977    0.0000 H   0  0  0  0  0  0  0  0  0  0  0  0
  -29.6442    2.2694    0.0000 H   0  0  0  0  0  0  0  0  0  0  0  0
  -33.3911   -0.2227    0.0000 H   0  0  0  0  0  0  0  0  0  0  0  0
  -32.2371    2.1050    0.0000 H   0  0  0  0  0  0  0  0  0  0  0  0
  -31.9522   -2.3860    0.0000 H   0  0  0  0  0  0  0  0  0  0  0  0
  -29.3594   -2.2216    0.0000 H   0  0  0  0  0  0  0  0  0  0  0  0
  -25.0802   -2.4130    0.0000 H   0  0  0  0  0  0  0  0  0  0  0  0
  -24.4751   -3.1939    0.0000 H   0  0  0  0  0  0  0  0  0  0  0  0
  -25.0692   -4.6628    0.0000 H   0  0  0  0  0  0  0  0  0  0  0  0
  -23.8555   -5.9710    0.0000 H   0  0  0  0  0  0  0  0  0  0  0  0
  -22.2497   -5.1928    0.0000 H   0  0  0  0  0  0  0  0  0  0  0  0
  -21.8258   -6.3560    0.0000 H   0  0  0  0  0  0  0  0  0  0  0  0
  -17.5815   -7.7816    0.0000 H   0  0  0  0  0  0  0  0  0  0  0  0
  -18.8361   -7.6757    0.0000 H   0  0  0  0  0  0  0  0  0  0  0  0
  -15.9959   -7.9098    0.0000 H   0  0  0  0  0  0  0  0  0  0  0  0
  -17.0853   -7.9590    0.0000 H   0  0  0  0  0  0  0  0  0  0  0  0
  -14.1083   -7.5378    0.0000 H   0  0  0  0  0  0  0  0  0  0  0  0
  -15.4921   -7.8698    0.0000 H   0  0  0  0  0  0  0  0  0  0  0  0
  -13.1273   -7.4215    0.0000 H   0  0  0  0  0  0  0  0  0  0  0  0
  -20.9717   -8.2797    0.0000 H   0  0  0  0  0  0  0  0  0  0  0  0
  -22.1944   -7.1959    0.0000 H   0  0  0  0  0  0  0  0  0  0  0  0
  -21.7017   -5.6381    0.0000 H   0  0  0  0  0  0  0  0  0  0  0  0
  -21.9101   -7.9926    0.0000 H   0  0  0  0  0  0  0  0  0  0  0  0
  -18.7998   -9.3441    0.0000 H   0  0  0  0  0  0  0  0  0  0  0  0
  -18.3547  -12.1278    0.0000 H   0  0  0  0  0  0  0  0  0  0  0  0
  -18.3239  -10.1997    0.0000 H   0  0  0  0  0  0  0  0  0  0  0  0
  -21.4232  -13.3779    0.0000 H   0  0  0  0  0  0  0  0  0  0  0  0
  -21.7210  -12.0971    0.0000 H   0  0  0  0  0  0  0  0  0  0  0  0
  -19.9149  -13.1200    0.0000 H   0  0  0  0  0  0  0  0  0  0  0  0
  -22.8731  -11.8171    0.0000 H   0  0  0  0  0  0  0  0  0  0  0  0
  -24.7672  -14.7780    0.0000 H   0  0  0  0  0  0  0  0  0  0  0  0
  -23.1629  -15.0874    0.0000 H   0  0  0  0  0  0  0  0  0  0  0  0
  -23.8199  -11.6345    0.0000 H   0  0  0  0  0  0  0  0  0  0  0  0
  -27.5226  -12.3685    0.0000 H   0  0  0  0  0  0  0  0  0  0  0  0
  -27.4422  -14.1511    0.0000 H   0  0  0  0  0  0  0  0  0  0  0  0
  -25.7139  -14.5954    0.0000 H   0  0  0  0  0  0  0  0  0  0  0  0
  -27.0751  -11.1975    0.0000 H   0  0  0  0  0  0  0  0  0  0  0  0
  -25.8262   -9.9230    0.0000 H   0  0  0  0  0  0  0  0  0  0  0  0
  -24.1718  -10.9137    0.0000 H   0  0  0  0  0  0  0  0  0  0  0  0
  1  2  1  0
  2  3  1  0
  3  4  1  0
  4  5  2  0
  4  6  1  0
  6  7  1  0
  7  8  1  0
  8  9  1  0
  8 10  1  0
  7 11  1  0
 11 12  2  0
 11 13  1  0
 13 14  1  0
 14 15  1  0
 15 16  1  0
 15 17  1  0
 17 18  1  0
 14 19  1  0
 19 20  2  0
 19 21  1  0
 21 22  1  0
 22 23  1  0
 23 24  1  0
 24 25  1  0
 24 26  1  0
 22 27  1  0
 27 28  2  0
 27 29  1  0
 29 30  1  0
 30 31  1  0
 31 32  1  0
 32 33  1  0
 33 34  1  0
 34 35  1  0
 30 36  1  0
 36 37  2  0
 36 38  1  0
 38 39  1  0
 39 40  1  0
 39 41  1  0
 41 42  2  0
 41 43  1  0
 43 44  1  0
 44 45  1  0
 45 46  1  0
 44 47  1  0
 47 48  2  0
 47 49  1  0
 49 50  1  0
 50 51  1  0
 51 52  1  0
 50 53  1  0
 53 54  2  0
 53 55  1  0
 55 56  1  0
 56 57  1  0
 57 58  1  0
 58 59  2  0
 58 60  1  0
 56 61  1  0
 61 62  2  0
 61 63  1  0
 63 64  1  0
 64 65  1  0
 65 66  1  0
 66 67  2  0
 67 68  1  0
 68 69  2  0
 69 70  1  0
 69 71  1  0
 71 72  2  0
 64 73  1  0
 73 74  2  0
 73 75  1  0
 75 76  1  0
 76 77  1  0
 77 78  1  0
 77 79  1  0
 79 80  1  0
 76 81  1  0
 81 82  2  0
 81 83  1  0
 83 84  1  0
 84 85  1  0
 85 86  1  0
 86 87  1  0
 87 88  1  0
 88 89  1  0
 89 90  2  3
 89 91  1  0
 84 92  1  0
 92 93  2  0
 92 94  1  0
 94 95  1  0
 95 96  1  0
 96 97  1  0
 97 98  1  0
 98 99  1  0
 99100  1  0
 95101  1  0
101102  2  0
101103  1  0
103104  1  0
104105  1  0
105106  1  0
106107  1  0
106108  1  0
104109  1  0
109110  2  0
109111  1  0
112111  1  6
112113  1  0
113114  1  0
114115  1  0
115116  1  0
116117  1  0
117118  1  0
118119  1  0
112120  1  0
112121  1  0
121122  2  0
121123  1  0
123124  1  0
124125  1  0
125126  1  0
126127  1  0
127128  1  0
128129  1  0
129130  2  3
129131  1  0
124132  1  0
132133  2  0
132134  1  0
134135  1  0
135136  1  0
136137  1  0
137138  1  0
138139  2  0
138140  1  0
135141  1  0
141142  2  0
141143  1  0
143144  1  0
144145  1  0
145146  1  0
146147  1  0
147148  1  0
147149  2  0
144150  1  0
150151  2  0
150152  1  0
152153  1  0
153154  1  0
154155  1  0
155156  1  0
156157  1  0
156158  2  0
153159  1  0
159160  2  0
159161  1  0
161162  1  0
162163  1  0
163164  1  0
164165  1  0
165166  1  0
166167  1  0
167168  2  3
167169  1  0
162170  1  0
170171  2  0
170172  1  0
172173  1  0
173174  1  0
173175  1  0
175176  2  0
175177  1  0
177178  1  0
178179  1  0
179180  1  0
180181  1  0
181182  1  0
178183  1  0
178184  1  1
184185  2  0
184186  1  0
186187  1  0
187188  1  0
188189  1  0
189190  1  0
190191  2  0
190192  1  0
187193  1  0
193194  2  0
193195  1  0
195196  1  0
196197  1  0
197198  1  0
198199  1  0
198200  1  0
196201  1  0
201202  2  0
201203  1  0
 72 66  1  0
119182  2  0
  1204  1  0
  1205  1  0
  2206  1  0
  2207  1  0
  3208  1  0
  3209  1  0
  6210  1  0
  7211  1  6
  8212  1  1
  9213  1  0
 10214  1  0
 10215  1  0
 10216  1  0
 13217  1  0
 14218  1  1
 15219  1  1
 16220  1  0
 16221  1  0
 16222  1  0
 17223  1  0
 17224  1  0
 18225  1  0
 18226  1  0
 18227  1  0
 21228  1  0
 22229  1  6
 23230  1  0
 23231  1  0
 24232  1  0
 25233  1  0
 25234  1  0
 25235  1  0
 26236  1  0
 26237  1  0
 26238  1  0
 29239  1  0
 30240  1  6
 31241  1  0
 31242  1  0
 32243  1  0
 32244  1  0
 33245  1  0
 33246  1  0
 34247  1  0
 34248  1  0
 35249  1  0
 35250  1  0
 35251  1  0
 38252  1  0
 39253  1  6
 40254  1  0
 40255  1  0
 40256  1  0
 43257  1  0
 44258  1  1
 45259  1  0
 45260  1  0
 46261  1  0
 49262  1  0
 50263  1  1
 51264  1  0
 51265  1  0
 52266  1  0
 52267  1  0
 52268  1  0
 55269  1  0
 56270  1  6
 57271  1  0
 57272  1  0
 63273  1  0
 64274  1  6
 65275  1  0
 65276  1  0
 67277  1  0
 68278  1  0
 70279  1  0
 71280  1  0
 72281  1  0
 75282  1  0
 76283  1  1
 77284  1  6
 78285  1  0
 78286  1  0
 78287  1  0
 79288  1  0
 79289  1  0
 80290  1  0
 80291  1  0
 80292  1  0
 83293  1  0
 84294  1  1
 85295  1  0
 85296  1  0
 86297  1  0
 86298  1  0
 87299  1  0
 87300  1  0
 88301  1  0
 90302  1  0
 90303  1  0
 91304  1  0
 91305  1  0
 94306  1  0
 95307  1  1
 96308  1  0
 96309  1  0
 97310  1  0
 97311  1  0
 98312  1  0
 98313  1  0
 99314  1  0
 99315  1  0
100316  1  0
100317  1  0
100318  1  0
103319  1  0
104320  1  6
105321  1  0
105322  1  0
106323  1  0
107324  1  0
107325  1  0
107326  1  0
108327  1  0
108328  1  0
108329  1  0
111330  1  0
113331  1  0
113332  1  0
114333  1  0
114334  1  0
115335  1  0
115336  1  0
116337  1  0
116338  1  0
117339  1  0
117340  1  0
118341  1  0
118342  1  0
119343  1  0
120344  1  0
120345  1  0
120346  1  0
123347  1  0
124348  1  6
125349  1  0
125350  1  0
126351  1  0
126352  1  0
127353  1  0
127354  1  0
128355  1  0
130356  1  0
130357  1  0
131358  1  0
131359  1  0
134360  1  0
135361  1  6
136362  1  0
136363  1  0
137364  1  0
137365  1  0
143366  1  0
144367  1  6
145368  1  0
145369  1  0
146370  1  0
146371  1  0
148372  1  0
148373  1  0
152374  1  0
153375  1  6
154376  1  0
154377  1  0
155378  1  0
155379  1  0
157380  1  0
157381  1  0
161382  1  0
162383  1  6
163384  1  0
163385  1  0
164386  1  0
164387  1  0
165388  1  0
165389  1  0
166390  1  0
168391  1  0
168392  1  0
169393  1  0
169394  1  0
172395  1  0
173396  1  6
174397  1  0
174398  1  0
174399  1  0
177400  1  0
179401  1  0
179402  1  0
180403  1  0
180404  1  0
181405  1  0
181406  1  0
182407  1  0
183408  1  0
183409  1  0
183410  1  0
186411  1  0
187412  1  1
188413  1  0
188414  1  0
189415  1  0
189416  1  0
195417  1  0
196418  1  6
197419  1  0
197420  1  0
198421  1  0
199422  1  0
199423  1  0
199424  1  0
200425  1  0
200426  1  0
200427  1  0
M  CHG  8  35   1  60  -1  90   1 100   1 130   1 140  -1 168   1 192  -1
M  CHG  1 203  -1
M  END
